    12
Energy=    -196.290778845711    
O         -1.283785534        0.6879553366        -1.622647242    
O         -1.116736442        -1.688775202       -0.1285291690    
O         -1.620111224        0.7911533247         1.151963184    
O          1.543426305        -1.590792742        0.2788180846    
O          1.030329689        0.9645200544         1.488475945    
O          1.446877205        0.8359392286        -1.168080803    
O         -1.139305632       -0.5226701629        0.6425507717    
O         0.5643106576        -2.182781384        -1.926945535    
O        -0.1286131331        0.6932540133         1.408146908    
O          1.692407024         1.012658054        -1.391912325    
O          2.427858763        0.2774038864        0.6204522192    
O          1.689705158        0.4022316143        -1.360668893    
    12
Energy=    -196.290716544121    
O         -1.283637971        0.6882545995        -1.622548865    
O         -1.116826671        -1.689203165       -0.1290179373    
O         -1.619772259        0.7902292506         1.152031959    
O          1.543008858        -1.590461119        0.2791388894    
O          1.030370165        0.9651847314         1.488565107    
O          1.446857878        0.8359957022        -1.168169153    
O         -1.138686777       -0.5224714060        0.6415479422    
O         0.5631958962        -2.183229603        -1.927046019    
O        -0.1292634500        0.6936478201         1.408345912    
O          1.692231237         1.012394078        -1.391511478    
O          2.427677077        0.2777174276        0.6204325307    
O          1.689667827        0.4019958875        -1.360954593    
    12
Energy=    -196.289631953644    
O         -1.285198571        0.6893894352        -1.621467897    
O         -1.116808161        -1.689428208       -0.1328372510    
O         -1.618442117        0.7878333302         1.154203690    
O          1.542449210        -1.590151224        0.2819151250    
O          1.032294838        0.9679012417         1.487077117    
O          1.445704802        0.8344554241        -1.168890784    
O         -1.137215346       -0.5220559837        0.6417991568    
O         0.5641293122        -2.180172067        -1.929482323    
O        -0.1292603726        0.6944124869         1.410656046    
O          1.693394745         1.009855188        -1.387805838    
O          2.427190522        0.2763912309        0.6166996772    
O          1.687991463        0.4006365664        -1.361525085    
    12
Energy=    -196.286722158459    
O         -1.286343307        0.6892834428        -1.619204292    
O         -1.117792296        -1.691364373       -0.1349478509    
O         -1.616826076        0.7852437714         1.157219657    
O          1.540414392        -1.587124704        0.2862152424    
O          1.034409262        0.9689967512         1.484204794    
O          1.446138025        0.8349651124        -1.173487551    
O         -1.137195369       -0.5204631892        0.6415092497    
O         0.5683224601        -2.175664253        -1.932830381    
O        -0.1238157499        0.6949592608         1.413027102    
O          1.693602397         1.008152508        -1.383156892    
O          2.433671912        0.2731293779        0.6171639765    
O          1.683691842        0.3968741344        -1.365240270    
    12
Energy=    -196.284512775480    
O         -1.286663651        0.6890290391        -1.617633741    
O         -1.117664388        -1.691996418       -0.1352043968    
O         -1.616942384        0.7845142147         1.158529893    
O          1.540020875        -1.585612132        0.2876360689    
O          1.034694751        0.9688114816         1.482822574    
O          1.446554797        0.8352538143        -1.176150398    
O         -1.136837327       -0.5198934040        0.6412761613    
O         0.5697030084        -2.174401075        -1.935280196    
O        -0.1218078115        0.6939987776         1.414310002    
O          1.692331769         1.007418345        -1.381272942    
O          2.438003138        0.2705933268        0.6174675870    
O          1.680557050        0.3952643539        -1.367455817    
    12
Energy=    -196.280869126843    
O         -1.287470808        0.6889987399        -1.615334384    
O         -1.116550267        -1.693022508       -0.1348463013    
O         -1.617051325        0.7843389156         1.158930170    
O          1.539578515        -1.583636253        0.2888907800    
O          1.034196039        0.9684265518         1.481899042    
O          1.447297847        0.8348945537        -1.179539307    
O         -1.134932009       -0.5190309361        0.6412152687    
O         0.5708346168        -2.173858445        -1.939047560    
O        -0.1202906315        0.6919883765         1.416028544    
O          1.689876988         1.006697047        -1.380209598    
O          2.443224777        0.2677107315        0.6179213780    
O          1.677395649        0.3943467044        -1.370577350    
    12
Energy=    -196.278163847903    
O         -1.287899121        0.6890601769        -1.614691574    
O         -1.115786972        -1.693400790       -0.1346686334    
O         -1.616896820        0.7845441223         1.158551007    
O          1.539067699        -1.582933211        0.2891865795    
O          1.033848514        0.9684330208         1.482176686    
O          1.447666701        0.8342966813        -1.180554064    
O         -1.133923523       -0.5183548476        0.6411868043    
O         0.5712449937        -2.173903248        -1.940367952    
O        -0.1201101500        0.6911324937         1.416440641    
O          1.689041566         1.006855381        -1.380067262    
O          2.444599408        0.2673813060        0.6182580962    
O          1.676671669        0.3938046783        -1.371518964    
    12
Energy=    -196.274239337210    
O         -1.286914356        0.6891825468        -1.612798000    
O         -1.117040392        -1.694391065       -0.1337934511    
O         -1.617722994        0.7837226932         1.161128056    
O          1.541598350        -1.581572250        0.2903607778    
O          1.033314625        0.9670787925         1.477610263    
O          1.446764767        0.8359792826        -1.182507645    
O         -1.134518347       -0.5214224562        0.6410641805    
O         0.5704734158        -2.173240726        -1.942123581    
O        -0.1183360693        0.6912033809         1.418923064    
O          1.688587031         1.005525911        -1.379531040    
O          2.448123938        0.2615168075        0.6170749643    
O          1.674836503        0.3977394015        -1.374807042    
    12
Energy=    -196.267802539371    
O         -1.287146499        0.6890413764        -1.610835225    
O         -1.115047235        -1.693751004       -0.1325973201    
O         -1.620467030        0.7817861254         1.164631614    
O          1.541834352        -1.580331473        0.2871083249    
O          1.031704151        0.9668034880         1.476109586    
O          1.449122261        0.8364514871        -1.184416980    
O         -1.138410437       -0.5269686583        0.6398760846    
O         0.5686835135        -2.171438276        -1.941267384    
O        -0.1151806854        0.6947845727         1.422394645    
O          1.688944536         1.005795489        -1.378430394    
O          2.451420485        0.2548135401        0.6134751133    
O          1.672261527        0.3992656159        -1.378665752    
    12
Energy=    -196.260601596729    
O         -1.286721497        0.6889228945        -1.610109943    
O         -1.115477806        -1.693118691       -0.1321655543    
O         -1.621946422        0.7800362184         1.167441617    
O          1.542963844        -1.580526663        0.2853477530    
O          1.031583792        0.9661477140         1.474177510    
O          1.449598088        0.8385385274        -1.184691383    
O         -1.140947972       -0.5301957579        0.6401514376    
O         0.5675674397        -2.170402949        -1.939828246    
O        -0.1134107613        0.6971641104         1.423588395    
O          1.688832026         1.002867225        -1.378334213    
O          2.453253290        0.2514000549        0.6112594011    
O          1.671445641        0.4013533669        -1.379236489    
    12
Energy=    -196.246749465007    
O         -1.288147902        0.6886286404        -1.605284563    
O         -1.116144440        -1.690389934       -0.1316727786    
O         -1.621617038        0.7749755831         1.170477388    
O          1.543417762        -1.582453633        0.2803204149    
O          1.031736544        0.9640399761         1.471809416    
O          1.450755074        0.8451993676        -1.185649877    
O         -1.141128732       -0.5327883133        0.6453257187    
O         0.5666030523        -2.169778757        -1.937319152    
O        -0.1116195811        0.6986223550         1.423116800    
O          1.681168014        0.9843710384        -1.382740508    
O          2.461009428        0.2499812694        0.6084972522    
O          1.673284129        0.4075659832        -1.375548088    
    12
Energy=    -196.225859322598    
O         -1.290228178        0.6899078446        -1.603733786    
O         -1.117461270        -1.691304624       -0.1307367585    
O         -1.624119937        0.7709777832         1.178303799    
O          1.544655129        -1.581473278        0.2725370553    
O          1.032753496        0.9604656297         1.471305122    
O          1.454400759        0.8514266441        -1.187675432    
O         -1.135916435       -0.5324732370        0.6534095485    
O         0.5656198414        -2.170856373        -1.935327051    
O        -0.1102451924        0.6997561784         1.422685783    
O          1.672380146        0.9605550746        -1.392424005    
O          2.471386854        0.2526611557        0.6056875244    
O          1.675990689        0.4136663387        -1.369827601    
    12
Energy=    -196.201430509287    
O         -1.292240231        0.6906772323        -1.600032596    
O         -1.118779755        -1.691323276       -0.1298155538    
O         -1.622464317        0.7681258555         1.180026705    
O          1.544754033        -1.581813336        0.2691628542    
O          1.033053035        0.9582919168         1.470317801    
O          1.455677236        0.8560416083        -1.189659211    
O         -1.129258060       -0.5301463809        0.6603422295    
O         0.5659229952        -2.172802037        -1.935608350    
O        -0.1109970324        0.6974181907         1.421340816    
O          1.663745491        0.9415953549        -1.400619647    
O          2.479688028        0.2570593262        0.6058735866    
O          1.680673696        0.4207943015        -1.365293862    
    12
Energy=    -196.174616632573    
O         -1.293349766        0.6919974639        -1.598288011    
O         -1.119233063        -1.693237431       -0.1283182357    
O         -1.620747346        0.7674209196         1.180962068    
O          1.544300463        -1.579930086        0.2676311398    
O          1.031552958        0.9572530441         1.469844848    
O          1.457476754        0.8564960887        -1.191831809    
O         -1.123181371       -0.5271417159        0.6639443783    
O         0.5662190761        -2.175017743        -1.936784119    
O        -0.1124229910        0.6947757445         1.421112681    
O          1.661141152        0.9354006831        -1.407460896    
O          2.483421219        0.2623232143        0.6069498930    
O          1.685349973        0.4243567413        -1.364362278    
    12
Energy=    -196.133027768044    
O         -1.292997964        0.6930566395        -1.595887559    
O         -1.120421301        -1.694902499       -0.1270549954    
O         -1.615623067        0.7675216863         1.180381893    
O          1.543449420        -1.578610779        0.2702522745    
O          1.028135604        0.9541901833         1.468730316    
O          1.457457308        0.8587447687        -1.196421930    
O         -1.119769744       -0.5258576286        0.6667863906    
O         0.5665322125        -2.177088944        -1.938023730    
O        -0.1137809374        0.6932543716         1.421399933    
O          1.660278532        0.9291905451        -1.411351289    
O          2.485026041        0.2653515924        0.6073458025    
O          1.689872853        0.4326197523        -1.362773649    
    12
Energy=    -196.087377522045    
O         -1.299560565        0.6928098247        -1.592493397    
O         -1.116500813        -1.695659029       -0.1311533929    
O         -1.616595508        0.7642181369         1.175228929    
O          1.545279270        -1.572353675        0.2641084384    
O          1.040072332        0.9431326985         1.474053979    
O          1.447305284        0.8678520435        -1.189744556    
O         -1.118258994       -0.5246318180        0.6801001635    
O         0.5671865742        -2.172677894        -1.940379646    
O        -0.1130659632        0.6911679148         1.416411617    
O          1.624242584        0.8693733861        -1.416297062    
O          2.501468935        0.2559810678        0.6064708029    
O          1.697851359        0.4386159529        -1.361386363    
    12
Energy=    -196.007974409092    
O         -1.305018158        0.6928889000        -1.597624372    
O         -1.111384237        -1.698466241       -0.1351191155    
O         -1.607827308        0.7648017823         1.177799034    
O          1.546023670        -1.570518987        0.2608747027    
O          1.041692153        0.9305372855         1.481521456    
O          1.436513881        0.8807572597        -1.187451705    
O         -1.120801425       -0.5277087556        0.6917608537    
O         0.5681047460        -2.167238903        -1.942303374    
O        -0.1121787527        0.6911841156         1.412108045    
O          1.590345731        0.8085491659        -1.414873492    
O          2.514804880        0.2415445032        0.6029027224    
O          1.701792412        0.4488185406        -1.358937086    
    12
Energy=    -195.926461335083    
O         -1.309004992        0.6913116272        -1.600436896    
O         -1.110248328        -1.697525240       -0.1399046431    
O         -1.606350918        0.7645827674         1.178569487    
O          1.548844695        -1.572540362        0.2587898975    
O          1.046689927        0.9231352289         1.488141676    
O          1.430069615        0.8910359782        -1.185159522    
O         -1.124947691       -0.5314879795        0.6983111316    
O         0.5683471838        -2.162526445        -1.942031604    
O        -0.1099182905        0.6938679674         1.409330257    
O          1.568243512        0.7694249066        -1.411160876    
O          2.522844750        0.2295703440        0.5992623715    
O          1.699161930        0.4530753821        -1.354881230    
    12
Energy=    -195.877393222027    
O         -1.311661051        0.6899844049        -1.603849478    
O         -1.109954424        -1.696799666       -0.1422008886    
O         -1.605156633        0.7649724760         1.181283371    
O          1.550215284        -1.577689738        0.2579745254    
O          1.047860809        0.9221466161         1.490244738    
O          1.428696014        0.8973859070        -1.183452267    
O         -1.126175761       -0.5333344992        0.7004846514    
O         0.5683861828        -2.160409205        -1.941476813    
O        -0.1091096879        0.6944145865         1.407742594    
O          1.559233272        0.7555693460        -1.409052354    
O          2.525560306        0.2246371285        0.5979184807    
O          1.696500287        0.4539514531        -1.353110727    
    12
Energy=    -195.800198032182    
O         -1.310918240        0.6882765964        -1.606890955    
O         -1.111940781        -1.696895109       -0.1420402748    
O         -1.606665518        0.7648260210         1.182028194    
O          1.547981342        -1.589580452        0.2703287097    
O          1.052640701        0.9213967439         1.487337095    
O          1.428902496        0.9119761995        -1.190762769    
O         -1.125681720       -0.5351059691        0.7042336659    
O         0.5674338054        -2.162510788        -1.942400757    
O        -0.1063567990        0.6971566386         1.404426700    
O          1.558597593        0.7402337007        -1.404942236    
O          2.527347366        0.2206383469        0.5948956201    
O          1.697400823        0.4799942751        -1.347093421    
    12
Energy=    -195.423988581930    
O         -1.298125942        0.6945278541        -1.600366116    
O         -1.104862417        -1.693342403       -0.1385358180    
O         -1.600079056        0.7633929138         1.182203126    
O          1.537438971        -1.549014759        0.2557471938    
O          1.048723446        0.9083677228         1.486824429    
O          1.416904998        0.8760686706        -1.185872814    
O         -1.127223381       -0.5420459036        0.7044792600    
O         0.5707695312        -2.161709807        -1.943811250    
O        -0.1064794146        0.6962655359         1.404455836    
O          1.558589090        0.7272913773        -1.397868058    
O          2.533333676        0.2154554622        0.5954498127    
O          1.685945628        0.4808446777        -1.332580942    
    12
Energy=    -194.556363326460    
O         -1.289768147        0.6888664447        -1.603301505    
O         -1.101903884        -1.698326611       -0.1299948479    
O         -1.592847101        0.7660078831         1.177873353    
O          1.506375472        -1.586216330        0.3307394428    
O          1.062084538        0.8889555183         1.435174772    
O          1.416059122        0.9407130953        -1.210491215    
O         -1.125235139       -0.5469125393        0.7193460029    
O         0.5663341439        -2.178683471        -1.950759039    
O        -0.1012271893        0.7063583406         1.397198843    
O          1.579271506        0.6760665966        -1.385367764    
O          2.540914548        0.2094714212        0.5853329310    
O          1.705535726        0.6174074173        -1.310220505    
    12
Energy=    -194.503449148589    
O         -1.289141790        0.6880977840        -1.603556635    
O         -1.103041346        -1.698851060       -0.1295297587    
O         -1.592144722        0.7661988692         1.177295682    
O          1.505096589        -1.592057665        0.3385237576    
O          1.063137278        0.8878718692         1.431608307    
O          1.416093992        0.9487402035        -1.214341353    
O         -1.125092566       -0.5472562145        0.7207927317    
O         0.5657950414        -2.180261753        -1.951290556    
O        -0.1006145316        0.7074687640         1.396473484    
O          1.581087895        0.6715155153        -1.384427002    
O          2.541035133        0.2089015370        0.5842142068    
O          1.707764947        0.6301953359        -1.308411807    
    12
Energy=    -193.913558058963    
O         -1.283189667        0.6801906036        -1.606041883    
O         -1.114871209        -1.704075477       -0.1250847900    
O         -1.585019606        0.7680749761         1.171454525    
O          1.492918272        -1.650471140        0.4164742514    
O          1.073167254        0.8774689623         1.395925482    
O          1.416994955         1.028812075        -1.252727585    
O         -1.123701529       -0.5506880506        0.7351830384    
O         0.5603949298        -2.196065919        -1.956644275    
O        -0.9444142099E-01    0.7186118309         1.389192214    
O          1.599525462        0.6257928762        -1.375205982    
O          2.542872848        0.2031288535        0.5727570775    
O          1.730169081        0.7581199309        -1.290467068    
    12
Energy=    -193.545108474405    
O         -1.277421963        0.6721374023        -1.608541008    
O         -1.126157668        -1.709318649       -0.1205697667    
O         -1.578197540        0.7699810648         1.165671533    
O          1.480246410        -1.708485359        0.4945953868    
O          1.083122065        0.8671363110         1.359617461    
O          1.418408697         1.108549230        -1.290773606    
O         -1.122331602       -0.5541066849        0.7494524159    
O         0.5550011322        -2.211853471        -1.962096697    
O        -0.8830146527E-01    0.7297216316         1.381933294    
O          1.618304269        0.5797596927        -1.366038907    
O          2.545741752        0.1973400217        0.5610877871    
O          1.752611555        0.8861034958        -1.272584051    
    12
Energy=    -193.441132730632    
O         -1.271663267        0.6640898601        -1.610996993    
O         -1.137440551        -1.714515107       -0.1160875238    
O         -1.571253181        0.7718730716         1.159892121    
O          1.467567012        -1.766460293        0.5728123216    
O          1.092927108        0.8567615546         1.323221025    
O          1.419862879         1.188250914        -1.328840951    
O         -1.120967887       -0.5575538855        0.7636909187    
O         0.5496412718        -2.227632417        -1.967556824    
O        -0.8217389862E-01    0.7408014918         1.374680538    
O          1.637122727        0.5337356957        -1.356863188    
O          2.548687544        0.1915249508        0.5494151716    
O          1.774979279         1.014055694        -1.254685614    
    12
Energy=    -193.434697689037    
O         -1.270771798        0.6627685729        -1.611384960    
O         -1.139345356        -1.715350340       -0.1153979373    
O         -1.570126796        0.7721720108         1.158951471    
O          1.465643297        -1.775843520        0.5854078584    
O          1.094450307        0.8551588598         1.317414692    
O          1.420150345         1.201094417        -1.334991125    
O         -1.120753267       -0.5581034959        0.7659737786    
O         0.5487749993        -2.230169667        -1.968433648    
O        -0.8118059396E-01    0.7425912779         1.373510834    
O          1.640166977        0.5263291822        -1.355413908    
O          2.549197145        0.1905833399        0.5475090792    
O          1.778597014         1.034617606        -1.251832448    
    12
Energy=    -193.433514519405    
O         -1.270692363        0.6624730525        -1.611434922    
O         -1.139899999        -1.715495484       -0.1153495854    
O         -1.569890035        0.7722120041         1.158757603    
O          1.465572611        -1.777648926        0.5876898167    
O          1.094587042        0.8550233774         1.316488802    
O          1.420322744         1.203435976        -1.336151713    
O         -1.120726267       -0.5581931352        0.7663645816    
O         0.5486125779        -2.230621271        -1.968586619    
O        -0.8098621368E-01    0.7429268394         1.373294816    
O          1.640749748        0.5249991288        -1.355216062    
O          2.549366971        0.1903991191        0.5471047785    
O          1.779284191         1.038246271        -1.251379372    
    12
Energy=    -193.427858858156    
O         -1.268499910        0.6614283224        -1.612261950    
O         -1.141335908        -1.716371123       -0.1140389603    
O         -1.566903885        0.7728782920         1.157388879    
O          1.459662883        -1.789181211        0.6058416211    
O          1.098091555        0.8511689060         1.307325271    
O          1.418985264         1.220076813        -1.344254860    
O         -1.120063425       -0.5593152130        0.7708384334    
O         0.5473382347        -2.235073085        -1.969858022    
O        -0.7953756409E-01    0.7456819860         1.371370028    
O          1.644192154        0.5134764465        -1.352159895    
O          2.547953153        0.1888463983        0.5455991427    
O          1.783774410         1.073492111        -1.244782658    
    12
Energy=    -193.432746774328    
O         -1.266307456        0.6603835923        -1.613088979    
O         -1.142771817        -1.717246761       -0.1127283352    
O         -1.563917734        0.7735445799         1.156020156    
O          1.453753154        -1.800713496        0.6239934254    
O          1.101596069        0.8473144346         1.298161740    
O          1.417647785         1.236717651        -1.352358007    
O         -1.119400583       -0.5604372907        0.7753122852    
O         0.5460638916        -2.239524899        -1.971129426    
O        -0.7808891450E-01    0.7484371326         1.369445241    
O          1.647634561        0.5019537643        -1.349103727    
O          2.546539335        0.1872936774        0.5440935069    
O          1.788264630         1.108737951        -1.238185944    
    12
Energy=    -193.435203568920    
O         -1.265299335        0.6604598255        -1.613436830    
O         -1.142643458        -1.717357665       -0.1122223159    
O         -1.562445516        0.7738374543         1.155614571    
O          1.450734933        -1.803192967        0.6292308982    
O          1.103151049        0.8455449864         1.295192821    
O          1.416502326         1.240708366        -1.354379144    
O         -1.119055087       -0.5609101874        0.7771255688    
O         0.5456796380        -2.241157085        -1.971496071    
O        -0.7765902384E-01    0.7493114582         1.368780156    
O          1.648226034        0.4982358387        -1.347824727    
O          2.545239064        0.1867601618        0.5441945498    
O          1.789241271         1.121330282        -1.235201566    
    12
Energy=    -193.451618705308    
O         -1.259519147        0.6599400563        -1.615744485    
O         -1.144548955        -1.718170706       -0.1097088337    
O         -1.552373165        0.7757291720         1.152431072    
O          1.433351007        -1.822715245        0.6664856676    
O          1.112560011        0.8355032565         1.276006722    
O          1.410530249         1.269713466        -1.369470142    
O         -1.116778185       -0.5639400938        0.7895208589    
O         0.5427985962        -2.252527145        -1.974031774    
O        -0.7436401861E-01    0.7557297884         1.364022769    
O          1.653008541        0.4720914889        -1.339789023    
O          2.537555374        0.1828565635        0.5438266279    
O          1.796913673         1.208704269        -1.215340431    
    12
Energy=    -193.474253392872    
O         -1.249720491        0.6588086037        -1.619752981    
O         -1.148392392        -1.719604912       -0.1055271139    
O         -1.534920275        0.7790002014         1.146823830    
O          1.403790398        -1.857154005        0.7314898978    
O          1.128681197        0.8184869993         1.242910034    
O          1.400561562         1.320463112        -1.395943667    
O         -1.112843690       -0.5691488742        0.8110461912    
O         0.5377355228        -2.272314061        -1.978443020    
O        -0.6857615059E-01    0.7669652255         1.355722823    
O          1.661469018        0.4265352390        -1.325980901    
O          2.524482957        0.1760299497        0.5429627547    
O          1.810470049         1.360713944        -1.180962749    
    12
Energy=    -193.487927429597    
O         -1.242335309        0.6573744487        -1.623257316    
O         -1.152129891        -1.720864322       -0.1024018928    
O         -1.521021909        0.7817781886         1.142103554    
O          1.380011183        -1.886319041        0.7857174979    
O          1.142116481        0.8052044197         1.216129817    
O          1.393359446         1.362826306        -1.418291660    
O         -1.109569673       -0.5732428950        0.8289247299    
O         0.5333785091        -2.288778352        -1.982115199    
O        -0.6370120071E-01    0.7764206347         1.348807970    
O          1.668643312        0.3886196563        -1.314821889    
O          2.514377537        0.1703162809        0.5419354734    
O          1.822138165         1.487175210        -1.152486918    
    12
Energy=    -193.528912934299    
O         -1.243459358        0.6559238885        -1.624613697    
O         -1.152835572        -1.721302435       -0.1026504610    
O         -1.520685901        0.7827232557         1.141280956    
O          1.376691073        -1.890591316        0.7945211959    
O          1.145129133        0.8046524477         1.214370775    
O          1.395160626         1.368594160        -1.422908768    
O         -1.109055867       -0.5730189443        0.8322423698    
O         0.5320066325        -2.291458255        -1.982642417    
O        -0.6320570885E-01    0.7779448120         1.347819370    
O          1.669796105        0.3823248342        -1.314013362    
O          2.515633124        0.1692124282        0.5413875695    
O          1.825197470         1.508973522        -1.146689081    
    12
Energy=    -193.632297212648    
O         -1.246042603        0.6489516788        -1.630243784    
O         -1.160054691        -1.722257649       -0.1038134584    
O         -1.513917009        0.7858909950         1.137064184    
O          1.367880942        -1.910565695        0.8310739117    
O          1.151527220        0.8060533844         1.206585967    
O          1.400606141         1.391927286        -1.440666820    
O         -1.108307916       -0.5712836577        0.8465967569    
O         0.5258378129        -2.301860674        -1.984496108    
O        -0.6308820493E-01    0.7821910825         1.343914122    
O          1.675081851        0.3552959713        -1.311387794    
O          2.520897810        0.1624478302        0.5375559268    
O          1.841520182         1.600602726        -1.121556385    
    12
Energy=    -193.641336988918    
O         -1.248823862        0.6482997877        -1.628866286    
O         -1.159293015        -1.721532571       -0.1044887751    
O         -1.524019093        0.7842370325         1.138082831    
O          1.383025505        -1.895492293        0.7999161817    
O          1.145129202        0.8147773551         1.223006117    
O          1.403981263         1.369710688        -1.427650069    
O         -1.110867912       -0.5675281229        0.8371512480    
O         0.5272410165        -2.292148787        -1.982164381    
O        -0.6654237265E-01    0.7766045270         1.348098551    
O          1.671128591        0.3756114127        -1.317803149    
O          2.525634898        0.1648947919        0.5359065287    
O          1.839057100         1.530958683        -1.137005244    
    12
Energy=    -193.655927027185    
O         -1.244400818        0.6446540819        -1.631918439    
O         -1.160983450        -1.722957295       -0.1004826748    
O         -1.520163939        0.7864407302         1.134165784    
O          1.374740475        -1.907859061        0.8192102229    
O          1.150615959        0.8089237415         1.213498579    
O          1.400191773         1.390797802        -1.434473472    
O         -1.111054248       -0.5674339585        0.8443339273    
O         0.5238321495        -2.297677006        -1.983008436    
O        -0.6680145293E-01    0.7790720771         1.346463134    
O          1.673835951        0.3597271470        -1.313530769    
O          2.519639211        0.1624677540        0.5312058655    
O          1.851042379         1.579933770        -1.125927286    
    12
Energy=    -193.657351692585    
O         -1.244511824        0.6444904647        -1.631915456    
O         -1.160914105        -1.723115905       -0.1003532034    
O         -1.519853893        0.7866567456         1.134074349    
O          1.375123673        -1.907589054        0.8184627909    
O          1.150082510        0.8089606527         1.213631415    
O          1.400073639         1.390597096        -1.433899896    
O         -1.111261521       -0.5675662492        0.8440492400    
O         0.5237236103        -2.297486396        -1.982859541    
O        -0.6711652353E-01    0.7786662499         1.346503658    
O          1.673686899        0.3601753298        -1.313792887    
O          2.519960155        0.1626423208        0.5309041316    
O          1.851289779         1.578074286        -1.126079295    
    12
Energy=    -193.660781902052    
O         -1.244821811        0.6438840609        -1.631888181    
O         -1.160651610        -1.723741026       -0.9975709705E-01
O         -1.519169414        0.7876188526         1.133303405    
O          1.377548641        -1.906117603        0.8142465188    
O          1.148214028        0.8092980546         1.214747116    
O          1.398880166         1.389057661        -1.430651761    
O         -1.112190911       -0.5682558333        0.8425704603    
O         0.5230516336        -2.296609180        -1.982008487    
O        -0.6839065449E-01    0.7766982449         1.346298177    
O          1.672685776        0.3628377509        -1.315326346    
O          2.521940011        0.1636093549        0.5293840506    
O          1.851919056         1.567221410        -1.126626839    
    12
Energy=    -193.661904769473    
O         -1.244914815        0.6435501354        -1.632414812    
O         -1.160568641        -1.723888133       -0.9933508015E-01
O         -1.518850877        0.7881722827         1.132611427    
O          1.378030131        -1.906364166        0.8138134184    
O          1.148239011        0.8088559627         1.215134874    
O          1.398065191         1.389673918        -1.429809828    
O         -1.112350090       -0.5685798953        0.8426280305    
O         0.5224418843        -2.296995683        -1.981632054    
O        -0.6860856011E-01    0.7762721750         1.345667193    
O          1.672192145        0.3629403979        -1.315806111    
O          2.522769378        0.1639971705        0.5284589862    
O          1.852093880         1.565902757        -1.125604829    
    12
Energy=    -193.665961660890    
O         -1.246388974        0.6416274572        -1.636246309    
O         -1.160208204        -1.723495976       -0.9747719296E-01
O         -1.517187090        0.7906785513         1.129104138    
O          1.380002904        -1.908336270        0.8118115376    
O          1.149078238        0.8060172790         1.217739994    
O          1.394703126         1.393508959        -1.424932167    
O         -1.113005300       -0.5690885135        0.8442718264    
O         0.5193828336        -2.300167259        -1.979124541    
O        -0.6956186293E-01    0.7748883159         1.342207115    
O          1.669293850        0.3625190550        -1.318069240    
O          2.526014933        0.1656506378        0.5238987088    
O          1.851352608         1.562506356        -1.119931356    
    12
Energy=    -193.668511689385    
O         -1.246364996        0.6398332631        -1.639224221    
O         -1.160483133        -1.723026062       -0.9659179917E-01
O         -1.515492218        0.7929300270         1.126160122    
O          1.379632963        -1.911604838        0.8127986178    
O          1.151557875        0.8030985678         1.219780118    
O          1.391149508         1.398769042        -1.422922838    
O         -1.114035291       -0.5684746173        0.8484073535    
O         0.5164907438        -2.304479204        -1.975555367    
O        -0.7083646912E-01    0.7745763394         1.339229846    
O          1.667655206        0.3582694523        -1.320423316    
O          2.528362932        0.1653944954        0.5215881939    
O          1.850590993         1.571362850        -1.112828981    
    12
Energy=    -193.669991965133    
O         -1.246109806        0.6372947951        -1.642428811    
O         -1.161759438        -1.722360289       -0.9474454565E-01
O         -1.513819107        0.7947083617         1.124101056    
O          1.378426962        -1.913613897        0.8114204670    
O          1.153506054        0.8011316990         1.221967993    
O          1.389755335         1.402839330        -1.420316160    
O         -1.114506677       -0.5673111190        0.8535033400    
O         0.5138906819        -2.308460209        -1.970716806    
O        -0.7296405440E-01    0.7742916179         1.336695599    
O          1.665130928        0.3522209154        -1.323478459    
O          2.529745247        0.1636024613        0.5214088600    
O          1.850088796         1.585555490        -1.106035471    
    12
Energy=    -193.671027394847    
O         -1.244433319        0.6363405805        -1.641471049    
O         -1.163593756        -1.723115425       -0.9265580192E-01
O         -1.514241586        0.7949161412         1.123615195    
O          1.378383529        -1.912444466        0.8094589214    
O          1.152558181        0.8006361465         1.221336997    
O          1.391326953         1.403667023        -1.420284263    
O         -1.114898238       -0.5684156526        0.8533305645    
O         0.5132506166        -2.310015092        -1.971323379    
O        -0.7355118399E-01    0.7749773413         1.336155768    
O          1.660195405        0.3497606554        -1.325491395    
O          2.530086676        0.1631761710        0.5223570747    
O          1.851626497         1.592026697        -1.102834565    
    12
Energy=    -193.671270772621    
O         -1.242941239        0.6356296688        -1.640442733    
O         -1.164394732        -1.723718433       -0.9236378754E-01
O         -1.515050411        0.7943534622         1.124395210    
O          1.378484595        -1.912263456        0.8069475135    
O          1.151876720        0.8003006129         1.221138511    
O          1.392025067         1.405698145        -1.419674715    
O         -1.115602578       -0.5689903677        0.8524929164    
O         0.5141057610        -2.309711285        -1.972517650    
O        -0.7433354119E-01    0.7757786505         1.335534553    
O          1.656669772        0.3459090411        -1.327234047    
O          2.531386902        0.1629407025        0.5232700521    
O          1.848781561         1.589160070        -1.104385358    
