    18
Energy=    -458.126996946974    
H          1.913985569        -1.276425572         2.248647164    
H          1.611125042       -0.9613798391        0.7665860595    
H          1.434685444         1.077576433       -0.5458183101    
H          1.249234498         1.289142409        0.9337206870    
H          2.197909727        -1.308750812        -1.763096145    
H         0.7423483114       -0.9674645365        -1.354388192    
H         -2.064404076         2.408035993       -0.3766100516    
H        -0.7056582712         1.699746396       -0.1993285560    
H         -1.346573395       -0.1568021254        -1.622319211    
H         -1.243917643        -1.261395114       -0.6137573984    
H         -1.722341002       -0.2526265889E-02     1.021656354    
H        -0.5733792137       -0.8453521120         1.576980423    
O          1.379558495       -0.7163828940         1.677833126    
O          1.043208092         1.700172127        0.8410950035E-01
O          1.679818149       -0.8361451789        -1.106112222    
O         -1.655772932         1.537988562       -0.3518071761    
O        -0.9764810700        -1.044504556        -1.523290729    
O         -1.476525754       -0.9139297890         1.233608681    
    18
Energy=    -458.126729843621    
H          1.870556027        -1.417174077         2.185274555    
H          1.616289600       -0.9896486415        0.7235750376    
H          1.435358439         1.086687611       -0.4834893316    
H          1.257532950         1.309124993        0.9974623939    
H          2.200790364        -1.170537796        -1.835459382    
H         0.7422953888       -0.9237784547        -1.365912641    
H         -2.026851819         2.380998848       -0.5934391303    
H        -0.6966720462         1.686515757       -0.2179799420    
H         -1.349348300       -0.1998804038        -1.518492399    
H         -1.240245740        -1.328349001       -0.5469699132    
H         -1.749607890        0.4506910492E-01     1.060823878    
H        -0.5694389499       -0.7770042673         1.595736579    
O          1.394245145       -0.7822430864         1.644788482    
O          1.030755444         1.702655770        0.1453226688    
O          1.680689817       -0.7656629128        -1.136147113    
O         -1.637484810         1.515849196       -0.4265050201    
O        -0.9799570750        -1.091679749        -1.449654676    
O         -1.490668689       -0.8570264021         1.306788719    
    18
Energy=    -458.125717420359    
H          1.877989526        -1.550920178         2.172326093    
H          1.712494729        -1.035168734        0.7266206056    
H          1.324467150         1.015419122       -0.3552980155    
H          1.121679995         1.236350623         1.126664297    
H          2.136829683        -1.028865749        -1.920110190    
H         0.7034553260       -0.9113921855        -1.339699294    
H         -1.933828249         2.435555436       -0.8956359469    
H        -0.7481233572         1.675696179       -0.2852797185    
H         -1.368603544       -0.1999486866        -1.542139189    
H         -1.238402384        -1.256348168       -0.4830765868    
H         -1.703219539        0.5635903356E-01     1.192574135    
H        -0.4282011002       -0.7048788229         1.588530118    
O          1.524111271       -0.8211331869         1.654569025    
O         0.9015008922         1.624081333        0.2698257393    
O          1.647746157       -0.7379971011        -1.145936532    
O         -1.650373720         1.554206977       -0.6365320715    
O         -1.023498987        -1.097033091        -1.417085444    
O         -1.367446039       -0.8293180441         1.375196669    
    18
Energy=    -458.124716320746    
H          1.952943966        -1.687781944         2.159682725    
H          1.773507738        -1.124209932        0.7289008574    
H          1.241516355        0.9475363656       -0.2320555189    
H          1.077874957         1.304890838         1.232354943    
H          2.121039686       -0.9036286826        -1.901806672    
H         0.6725479857       -0.9246912607        -1.336030653    
H         -1.991970758         2.473096081        -1.118212113    
H        -0.8148236397         1.770705961       -0.4125111661    
H         -1.406974595       -0.2332647117        -1.568570497    
H         -1.267252232        -1.239443213       -0.4647638777    
H         -1.573831449        0.1266322151         1.311394753    
H        -0.3322498479       -0.7438825774         1.592110693    
O          1.572473272       -0.9563563749         1.666453283    
O         0.8857770061         1.638322706        0.3494091877    
O          1.604291921       -0.7292360264        -1.109870506    
O         -1.693884982         1.617433247       -0.7978533590    
O         -1.050006610        -1.118887281        -1.403550561    
O         -1.281496787       -0.7910440338         1.389852211    
    18
Energy=    -458.123697748750    
H          2.095279058        -2.026030226         2.043035443    
H          1.763904902        -1.251756997        0.7554405174    
H          1.082248431        0.8946488779       -0.3475083317E-01
H          1.093163528         1.728482829         1.256373322    
H          2.052449291       -0.7384872017        -1.805122855    
H         0.6071950918       -0.8630352910        -1.245044863    
H         -2.004632160         2.502328976        -1.466508985    
H        -0.9117774570         1.879652997       -0.5799138199    
H         -1.470992852       -0.2191475726        -1.548476538    
H         -1.300727454        -1.193284559       -0.4070563685    
H         -1.077371114        0.1921083060         1.277650810    
H        -0.2722961785        -1.010536220         1.716414446    
O          1.639245543        -1.244351998         1.717610783    
O         0.6197132535         1.612798546        0.4264597669    
O          1.532142746       -0.6493214426        -1.002399142    
O         -1.695771098         1.665431363        -1.107891750    
O         -1.091163946        -1.088041660        -1.350414579    
O         -1.164834156       -0.7559651506         1.435440302    
    18
Energy=    -458.123693982036    
H          2.103554654        -2.036309768         2.038726367    
H          1.763525236        -1.256135362        0.7571403414    
H          1.074371254        0.8934030083       -0.2806219985E-01
H          1.093811866         1.740442556         1.254518956    
H          2.050401959       -0.7327315792        -1.801806023    
H         0.6055575911       -0.8611141105        -1.241865341    
H         -2.009564986         2.506566352        -1.475687276    
H        -0.9160686481         1.885416520       -0.5889534270    
H         -1.473862405       -0.2209751381        -1.550588195    
H         -1.301835769        -1.188433714       -0.4031899334    
H         -1.052911994        0.1939832897         1.278462561    
H        -0.2739137862        -1.022253438         1.722110874    
O          1.641037366        -1.255879659         1.719573228    
O         0.6069390868         1.606861091        0.4355902292    
O          1.530150137       -0.6463582900       -0.9987241216    
O         -1.692453419         1.668775057        -1.126654033    
O         -1.092536564        -1.087872036        -1.347161143    
O         -1.160426149       -0.7518912013         1.437414792    
    18
Energy=    -458.123696409097    
H          2.111830249        -2.046589309         2.034417292    
H          1.763145571        -1.260513728        0.7588401655    
H          1.066494077        0.8921571388       -0.2137356652E-01
H          1.094460203         1.752402282         1.252664591    
H          2.048354627       -0.7269759567        -1.798489191    
H         0.6039200904       -0.8591929300        -1.238685819    
H         -2.014497812         2.510803728        -1.484865567    
H        -0.9203598392         1.891180043       -0.5979930341    
H         -1.476731958       -0.2228027036        -1.552699853    
H         -1.302944084        -1.183582869       -0.3993234984    
H         -1.028452875        0.1958582735         1.279274313    
H        -0.2755313939        -1.033970656         1.727807302    
O          1.642829188        -1.267407319         1.721535673    
O         0.5941649200         1.600923636        0.4447206914    
O          1.528157529       -0.6433951373       -0.9950491011    
O         -1.689135740         1.672118750        -1.145416316    
O         -1.093909182        -1.087702412        -1.343907708    
O         -1.156018141       -0.7478172519         1.439389282    
    18
Energy=    -458.124721217504    
H          2.141547734        -2.558178121         1.768159885    
H          1.778688486        -1.455877099        0.7625695634    
H         0.8789471610         1.002933953        0.1013364870    
H         0.8776522924         2.275713097        0.9708262533    
H          2.005729692       -0.5093813053        -1.646766521    
H         0.5789193124       -0.7582126410        -1.087742985    
H         -2.099482082         2.446875008        -1.713614679    
H        -0.8974981257         1.926948023       -0.9109427790    
H         -1.498726320       -0.1544058729        -1.450943208    
H         -1.314712895        -1.061721076       -0.2306928488    
H        -0.7093908010        0.1347637440         1.550578075    
H        -0.1830503754        -1.254624430         1.833853875    
O          1.702950203        -1.705732707         1.696303852    
O         0.2947622753         1.638532876        0.5485763597    
O          1.490142505       -0.4969622297       -0.8350737723    
O         -1.428059326         1.758859450        -1.704169190    
O         -1.122355142        -1.006006889        -1.181711142    
O         -1.000365933       -0.7856751983         1.607469587    
    18
Energy=    -458.125048428661    
H          1.859663896        -2.748020531         1.654908755    
H          1.750317111        -1.506541134        0.7572247941    
H         0.9228840628         1.062922247        0.7533197055E-01
H         0.9287303063         2.362811687        0.9060226154    
H          2.098870572       -0.4491594346        -1.607674059    
H         0.6663935703       -0.7165577776        -1.070693744    
H         -2.292433926         2.231240285        -1.564515257    
H        -0.9421354524         1.925063893       -0.8992452717    
H         -1.400749741       -0.2090197741        -1.480069458    
H         -1.218395838        -1.038946275       -0.2144308707    
H        -0.6798524964        0.2462471919         1.535997338    
H        -0.2005444730        -1.159723051         1.840974765    
O          1.598373809        -1.822576072         1.661438300    
O         0.3420280716         1.712063040        0.5085124969    
O          1.570566927       -0.4454397384       -0.8044194689    
O         -1.496155066         1.700841969        -1.663141917    
O         -1.012242591        -1.039632448        -1.165036635    
O        -0.9996415239       -0.6637729065         1.604030175    
