    18
Energy=    -458.126996911506    
H          1.913543968        -1.281394355         2.247957479    
H          1.604902206       -0.9741683155        0.7654447569    
H          1.445300827         1.054725981       -0.5626573156    
H          1.273529962         1.283371172        0.9160813900    
H          2.169961474        -1.350730080        -1.764959899    
H         0.7214564396       -0.9878358085        -1.349810895    
H         -2.034565445         2.431495294       -0.3824619726    
H        -0.6837280402         1.707548510       -0.2080352156    
H         -1.358299347       -0.1527709948        -1.610880570    
H         -1.263090241        -1.250163966       -0.5937951038    
H         -1.713673801        0.2937695373E-01     1.033370914    
H        -0.5721828018       -0.8233297798         1.588977399    
O          1.382793785       -0.7188046600         1.676206486    
O          1.066621227         1.688562792        0.6389042265E-01
O          1.662114351       -0.8659964511        -1.108818073    
O         -1.636761698         1.556590655       -0.3533189521    
O        -0.9992331995        -1.044437780        -1.506959276    
O         -1.478261159       -0.8832465915         1.251801979    
    18
Energy=    -458.126785528313    
H          1.856954571        -1.407897199         2.178741202    
H          1.587042716       -0.9807040316        0.7229743076    
H          1.459523537         1.088176205       -0.5256021887    
H          1.305200138         1.301297567        0.9577414333    
H          2.172980011        -1.225370392        -1.835665175    
H         0.7260510253       -0.9518637514        -1.354621455    
H         -1.997882230         2.396608568       -0.5429894527    
H        -0.6640357441         1.700080149       -0.2120559450    
H         -1.356442805       -0.2197283728        -1.526335468    
H         -1.259348929        -1.317680878       -0.5170813252    
H         -1.736551749        0.7062752005E-01     1.046018284    
H        -0.5977103118       -0.7738489851         1.617598177    
O          1.369812464       -0.7720850263         1.646611383    
O          1.079971937         1.709779313        0.1125533675    
O          1.668073753       -0.7869193885        -1.146313962    
O         -1.604931482         1.530792589       -0.4062767125    
O        -0.9933925925        -1.110517415        -1.428471625    
O         -1.515179092       -0.8313688316         1.314604688    
    18
Energy=    -458.125782853494    
H          1.829873376        -1.531401680         2.180434593    
H          1.703541264        -1.039749768        0.7238132738    
H          1.375615181         1.007000030       -0.3688743140    
H          1.209926017         1.268672598         1.114079773    
H          2.097084289        -1.069205497        -1.927962506    
H         0.6739516655       -0.9299987876        -1.340778628    
H         -1.903970779         2.426509157       -0.8831977781    
H        -0.6991042945         1.676985268       -0.2720737161    
H         -1.389240686       -0.2008887724        -1.487013599    
H         -1.280502839        -1.309359662       -0.4879728576    
H         -1.733374847        0.6674328309E-01     1.190812727    
H        -0.4380589507       -0.6530029489         1.571630047    
O          1.509599060       -0.8002769330         1.644385319    
O         0.9751866589         1.633945732        0.2543057435    
O          1.617025799       -0.7574000936        -1.155532576    
O         -1.603743283         1.551633947       -0.6159112124    
O         -1.069732382        -1.112822518        -1.415835990    
O         -1.374027279       -0.8074311784         1.376759775    
    18
Energy=    -458.124739636681    
H          1.955877008        -1.772482996         2.132992392    
H          1.751996712        -1.154865489        0.7349114505    
H          1.251951903        0.9213469777       -0.2017767884    
H          1.078475692         1.432148242         1.216603544    
H          2.060207664       -0.9066354441        -1.880211930    
H         0.6174033158       -0.9249262573        -1.304946027    
H         -1.917972057         2.453305219        -1.208295546    
H        -0.7751866620         1.778397065       -0.4278402343    
H         -1.437878298       -0.2086615511        -1.518181261    
H         -1.296618391        -1.255650673       -0.4514451475    
H         -1.488767599        0.1594037573         1.277875972    
H        -0.3108768420       -0.7586295983         1.616343848    
O          1.589912130        -1.005773451         1.680389175    
O         0.8824636309         1.663577224        0.3011153243    
O          1.551678728       -0.7408755701        -1.083005925    
O         -1.659334600         1.619420000       -0.8048069316    
O         -1.097275014        -1.107567118        -1.390311707    
O         -1.257538729       -0.7693393636         1.407734497    
    18
Energy=    -458.123697739382    
H          2.084840265        -2.028889909         2.053269514    
H          1.752373548        -1.266334149        0.7588857722    
H          1.093045167        0.8788608887       -0.5064990139E-01
H          1.124161129         1.722290002         1.233623369    
H          2.031833354       -0.7856712504        -1.809362579    
H         0.5883830786       -0.8842570564        -1.239541662    
H         -1.982986099         2.516674634        -1.476601680    
H        -0.8908643688         1.887670959       -0.5936602387    
H         -1.483614692       -0.2148791273        -1.537856870    
H         -1.319001444        -1.177904940       -0.3861502053    
H         -1.062376661        0.2210997263         1.282031151    
H        -0.2757453908       -0.9903475899         1.729628530    
O          1.633600179        -1.246990890         1.721649049    
O         0.6432757017         1.606726879        0.4079834430    
O          1.517640891       -0.6809728812        -1.004577070    
O         -1.679316752         1.678412892        -1.116862208    
O         -1.113871080        -1.086243012        -1.331900502    
O         -1.165416288       -0.7235943932         1.450841204    
    18
Energy=    -458.123694009637    
H          2.091326184        -2.041833886         2.048285603    
H          1.751994893        -1.271689849        0.7604349650    
H          1.085784214        0.8785366254       -0.4373839106E-01
H          1.124519449         1.738483208         1.229764690    
H          2.030010303       -0.7797394608        -1.805307585    
H         0.5867074160       -0.8816155983        -1.235938463    
H         -1.985023071         2.519661731        -1.489535637    
H        -0.8953760112         1.892744832       -0.6021771347    
H         -1.486200905       -0.2150729303        -1.538157184    
H         -1.320118668        -1.173850560       -0.3825467483    
H         -1.039342230        0.2211177442         1.283418556    
H        -0.2764600121        -1.001968574         1.735566422    
O          1.635939824        -1.259492192         1.723593033    
O         0.6304733355         1.602609453        0.4155238413    
O          1.515611934       -0.6773772790        -1.000346229    
O         -1.678245714         1.681399825        -1.132523071    
O         -1.115196184        -1.085015853        -1.328652048    
O         -1.160444220       -0.7212464540         1.453084495    
    18
Energy=    -458.123697037000    
H          2.097812103        -2.054777863         2.043301692    
H          1.751616238        -1.277045548        0.7619841579    
H          1.078523261        0.8782123620       -0.3682688073E-01
H          1.124877770         1.754676414         1.225906011    
H          2.028187252       -0.7738076712        -1.801252591    
H         0.5850317535       -0.8789741401        -1.232335264    
H         -1.987060043         2.522648828        -1.502469593    
H        -0.8998876536         1.897818705       -0.6106940306    
H         -1.488787118       -0.2152667333        -1.538457497    
H         -1.321235892        -1.169796180       -0.3789432913    
H         -1.016307799        0.2211357622         1.284805962    
H        -0.2771746333        -1.013589558         1.741504313    
O          1.638279469        -1.271993494         1.725537018    
O         0.6176709692         1.598492026        0.4230642396    
O          1.513582977       -0.6737816768       -0.9961153874    
O         -1.677174677         1.684386757        -1.148183934    
O         -1.116521288        -1.083788693        -1.325403594    
O         -1.155472152       -0.7188985147         1.455327786    
    18
Energy=    -458.124697164340    
H          2.191973682        -2.433851510         1.877596543    
H          1.741432373        -1.439282567        0.7955666690    
H         0.9299313562        0.9606871311        0.4650468406E-01
H         0.9843659135         2.174831511        0.9970759211    
H          1.976962329       -0.6004944327        -1.692126362    
H         0.5510810004       -0.7804481634        -1.113418370    
H         -2.114447456         2.440797454        -1.627421426    
H        -0.8575943292         1.950441408       -0.8914778603    
H         -1.504071281       -0.1535302367        -1.472375918    
H         -1.334829417        -1.053888471       -0.2486617343    
H        -0.6983771734        0.1598559312         1.485059481    
H        -0.2586336465        -1.238792629         1.850313265    
O          1.665248500        -1.640919550         1.740838909    
O         0.3747596119         1.610257099        0.5128746799    
O          1.470914918       -0.5408896527       -0.8758995964    
O         -1.429544525         1.767491986        -1.653386123    
O         -1.153532350        -1.016033689        -1.203889156    
O         -1.039076178       -0.7420831060         1.565887939    
    18
Energy=    -458.125048424660    
H          1.836919580        -2.752707745         1.673539947    
H          1.735331658        -1.520564724        0.7622565383    
H         0.9382359653         1.050371056        0.5650015034E-01
H         0.9687427974         2.359771024        0.8716100539    
H          2.080276387       -0.4972685355        -1.617430937    
H         0.6482309078       -0.7383191849        -1.066669916    
H         -2.273752129         2.244625946        -1.571272993    
H        -0.9225189952         1.926904114       -0.9133831780    
H         -1.415235301       -0.2074042605        -1.464959780    
H         -1.233784646        -1.024154122       -0.1906715746    
H        -0.6634016669        0.2739513133         1.539990322    
H        -0.2012140132        -1.134819608         1.858117711    
O          1.587232707        -1.824049090         1.671399283    
O         0.3699259515         1.712622357        0.4864723460    
O          1.558048223       -0.4765105087       -0.8104785265    
O         -1.486092476         1.701508812        -1.669909487    
O         -1.035384293        -1.039272867        -1.142805382    
O        -0.9952283660       -0.6306232842         1.621551452    
