   134
Energy=    -349.971822756644    
N         -698.0373560        -497.9439858         19.00437958    
H1        -697.9915464        -496.9899156         19.34180353    
H2        -698.3527727        -498.5541457         19.74418638    
H3        -698.7282543        -497.9644779         18.26894367    
CA        -696.7213274        -498.3893095         18.47147673    
HA        -696.9111042        -499.3197140         17.93198699    
CB        -696.1371150        -497.4141280         17.42783041    
HB        -696.0708744        -496.4167282         17.86022600    
HB        -695.1243820        -497.7404297         17.18595912    
SG        -697.0455977        -497.3155452         15.85332258    
C         -695.7029780        -498.7942719         19.56337294    
O         -695.2599645        -499.9411865         19.53905839    
N         -695.2657968        -497.9844375         20.54261302    
H         -694.6325413        -498.4459642         21.18286259    
CA        -695.6340011        -496.6028783         20.91712062    
HA        -696.0877948        -496.1031810         20.06546412    
CB        -696.6727776        -496.6682408         22.05604095    
HB        -697.0792015        -495.6673604         22.20978044    
HB        -697.5072177        -497.2987867         21.75063550    
CG        -696.1418111        -497.1895844         23.38449984    
CD        -695.9957614        -498.5757015         23.60083834    
HD        -696.2845539        -499.2803075         22.83040769    
CE        -695.4738232        -499.0536160         24.81933829    
HE        -695.3570389        -500.1172935         24.97808699    
CZ        -695.1048595        -498.1435992         25.83473013    
OH        -694.5962750        -498.5950929         27.01329450    
HH        -694.5370504        -499.5590159         27.03089350    
CE        -695.2718207        -496.7579237         25.62686307    
HE        -694.9927960        -496.0644908         26.40822094    
CD        -695.7923021        -496.2846533         24.40649500    
HD        -695.9113410        -495.2189592         24.25053849    
C         -694.4325347        -495.7133692         21.34128492    
O         -694.6201823        -494.5356584         21.66069913    
N         -693.2068770        -496.2588676         21.36028397    
H         -693.1170714        -497.2031439         21.01528184    
CA        -691.9439651        -495.5684949         21.70326715    
HA        -692.0886060        -494.4967635         21.55828197    
CB        -691.5229372        -495.7957294         23.17906127    
HB        -690.4714865        -495.5144911         23.26631882    
CG        -692.3074986        -494.8461431         24.09918546    
HG        -693.3606765        -495.1152954         24.10455903    
HG        -692.2061297        -493.8183502         23.74918558    
HG        -691.9204144        -494.8942941         25.11640439    
CG        -691.6548302        -497.2727311         23.62401190    
HG        -692.7066204        -497.5616644         23.64120333    
HG        -691.1407437        -497.9065265         22.90130078    
CD        -691.0552149        -497.5658040         25.00511741    
HD        -691.0910253        -498.6395453         25.19117438    
HD        -690.0168027        -497.2345591         25.03903623    
HD        -691.6270794        -497.0619548         25.78403486    
C         -690.8136969        -495.9798848         20.74543340    
O         -690.7446850        -497.1352021         20.32108754    
N         -689.9388700        -495.0245726         20.39586542    
H         -690.0588812        -494.1276512         20.84849092    
CA        -688.9361107        -495.0490325         19.30198896    
HA        -688.4571904        -494.0682720         19.30323925    
CB        -687.8171708        -496.0719001         19.58145198    
HB        -688.2305092        -497.0808441         19.57867498    
HB        -687.0873382        -496.0053062         18.77289918    
CG        -687.0894910        -495.8221112         20.91573510    
HG        -687.7951154        -495.9250218         21.74054285    
HG        -686.7045155        -494.8017067         20.92441817    
CD        -685.9223298        -496.7808534         21.16959095    
OE        -685.6066379        -497.6791380         20.39576012    
NE        -685.2245624        -496.6301437         22.27773103    
HE        -684.4529681        -497.2582953         22.45240048    
HE        -685.4611412        -495.8977697         22.93291066    
C         -689.5268036        -495.2075180         17.88009207    
O         -689.0883761        -494.5356822         16.94318317    
N         -690.5639961        -496.0318643         17.73436442    
H         -690.8150439        -496.5757283         18.55254179    
CA        -691.4941392        -496.1242585         16.60777446    
HA        -691.2671394        -495.3421755         15.88157089    
CB        -691.2790784        -497.5085333         15.96194393    
HB        -690.2235826        -497.6286569         15.71548675    
HB        -691.5381090        -498.2835984         16.68484654    
CG        -692.0650384        -497.7255974         14.68029966    
OD        -691.9664711        -496.9673806         13.72610449    
ND        -692.8676334        -498.7644154         14.60766389    
HD        -693.3612090        -498.9321818         13.74287038    
HD        -692.9284183        -499.4189589         15.37404882    
C         -692.9222939        -495.9078946         17.16986991    
O         -693.2176501        -496.3819820         18.26650634    
N         -693.8549459        -495.2055075         16.52638745    
H         -694.6807090        -495.0090247         17.07720218    
CA        -693.9094785        -494.7069859         15.14835683    
HA        -692.9442219        -494.8269669         14.66150160    
CB        -694.9540085        -495.5712759         14.41517434    
HB        -694.6394516        -496.6141729         14.44464357    
HB        -694.9927927        -495.2823737         13.36456741    
SG        -696.6337080        -495.4615495         15.10124600    
C         -694.2918161        -493.2036029         15.09707152    
O         -694.6855849        -492.6367950         16.12183562    
N         -694.2464772        -492.5412708         13.92059379    
CD        -693.6077287        -492.9933498         12.69075831    
HD        -694.3240767        -493.5530373         12.08797133    
HD        -692.7204032        -493.5965670         12.88379541    
CG        -693.2108110        -491.7166941         11.95594175    
HG        -693.1430704        -491.8726230         10.87883226    
HG        -692.2678625        -491.3387500         12.35434227    
CB        -694.3476270        -490.7664110         12.32475878    
HB        -695.2061221        -490.9679652         11.68101669    
HB        -694.0440404        -489.7225839         12.23702936    
CA        -694.6730652        -491.1414815         13.77633221    
HA        -694.0653872        -490.5261229         14.44132956    
C         -696.1612636        -490.8876832         14.09152690    
O         -696.5298645        -489.7726132         14.47071205    
N         -697.0183777        -491.9091575         13.94593734    
H         -696.6490378        -492.7775956         13.58687187    
CA        -698.4731256        -491.8185799         14.14577810    
HA        -698.8001012        -490.8409814         13.78920504    
CB        -699.1271930        -492.8993530         13.25904333    
HB        -698.7601088        -492.7766779         12.23827781    
HB        -698.8015216        -493.8782197         13.61374600    
CG        -700.6689264        -492.8931676         13.21904374    
HG        -701.0627376        -493.0560976         14.22151810    
CD        -701.2399260        -491.5856796         12.66400019    
HD        -700.8241600        -491.3840750         11.67638444    
HD        -702.3250694        -491.6598883         12.58970110    
HD        -701.0018049        -490.7599238         13.33313359    
CD        -701.1588431        -494.0370368         12.32946931    
HD        -702.2488643        -494.0623633         12.32712580    
HD        -700.7989869        -493.9012959         11.30898003    
HD        -700.7898220        -494.9870283         12.71710597    
C         -698.9112635        -491.9328823         15.62478809    
O         -699.9469358        -491.3737137         15.99955540    
N         -698.1422701        -492.6375152         16.46784954    
H         -697.2845339        -493.0276991         16.10351127    
CA        -698.4499859        -492.8882583         17.88819358    
HA        -698.2236891        -491.9966864         18.47192124    
HA        -699.5120072        -493.1052962         18.00149117    
C         -697.6626702        -494.0539235         18.48603258    
O         -696.4270549        -493.9284745         18.61896200    
OX        -698.2898958        -495.0828471         18.82634926    
   134
Energy=    -349.279304144102    
N         -697.9917195        -497.7241853         19.08787624    
H1        -697.8855651        -496.8321050         19.54716254    
H2        -698.4286106        -498.3751331         19.72413323    
H3        -698.6115667        -497.5918168         18.30201055    
CA        -696.6802579        -498.2474843         18.62018026    
HA        -696.8975557        -499.1740224         18.08436352    
CB        -696.0049002        -497.3257801         17.57995510    
HB        -696.0056879        -496.2982603         17.94178701    
HB        -694.9663636        -497.6395090         17.45922337    
SG        -696.7699752        -497.3673986         15.92634150    
C         -695.7527461        -498.6998181         19.77333509    
O         -695.4411618        -499.8881258         19.82871274    
N         -695.2742648        -497.8908250         20.73436164    
H         -694.7437030        -498.3853505         21.44021754    
CA        -695.4513818        -496.4445883         20.98270954    
HA        -695.7560589        -495.9561339         20.06065389    
CB        -696.5715229        -496.2460997         22.02516922    
HB        -696.8542145        -495.1921822         22.02458613    
HB        -697.4561175        -496.8035070         21.71996746    
CG        -696.2253770        -496.6534865         23.45031326    
CD        -696.2487358        -498.0116642         23.82920017    
HD        -696.5207235        -498.7732682         23.10857420    
CE        -695.9264372        -498.3864454         25.14874086    
HE        -695.9412112        -499.4298619         25.43396841    
CZ        -695.5914098        -497.3988646         26.10161347    
OH        -695.2802024        -497.7510884         27.37860696    
HH        -695.3239376        -498.7076583         27.50591666    
CE        -695.5854793        -496.0381295         25.72727820    
HE        -695.3311000        -495.2848116         26.46017871    
CD        -695.9003151        -495.6682950         24.40494445    
HD        -695.8862003        -494.6223751         24.12199872    
C         -694.1567532        -495.7140622         21.43300197    
O         -694.1890734        -494.5041176         21.67803296    
N         -693.0217309        -496.4239318         21.54238161    
H         -693.0494619        -497.3926885         21.26152940    
CA        -691.6924352        -495.8785958         21.89670331    
HA        -691.7600856        -494.7898718         21.91129807    
CB        -691.2353114        -496.3187231         23.30986772    
HB        -690.2263502        -495.9299175         23.46072910    
CG        -692.1372421        -495.6663403         24.37103775    
HG        -693.1261434        -496.1206701         24.34623467    
HG        -692.2297545        -494.5966736         24.18028119    
HG        -691.7097644        -495.7964148         25.36484548    
CG        -691.1829176        -497.8564581         23.47876559    
HG        -692.1855732        -498.2738845         23.37700689    
HG        -690.5578863        -498.2805396         22.69350312    
CD        -690.6003092        -498.3168905         24.82138411    
HD        -690.4928826        -499.4019108         24.81302337    
HD        -689.6199626        -497.8651901         24.97686077    
HD        -691.2649194        -498.0423194         25.64036475    
C         -690.6466805        -496.2213514         20.82349347    
O         -690.6852386        -497.3067101         20.24071762    
N         -689.7337731        -495.2807223         20.53847437    
H         -689.7669736        -494.4422497         21.10393431    
CA        -688.7833290        -495.2397160         19.39791787    
HA        -688.2602277        -494.2845930         19.47017378    
CB        -687.7040973        -496.3325890         19.53159465    
HB        -688.1668195        -497.3169731         19.45482572    
HB        -687.0047470        -496.2236501         18.70103557    
CG        -686.9109292        -496.2431414         20.84897771    
HG        -687.5857938        -496.3929954         21.69213648    
HG        -686.4772332        -495.2461347         20.93495692    
CD        -685.7818161        -497.2721781         20.95905244    
OE        -685.5437751        -498.1078178         20.09278164    
NE        -685.0306638        -497.2564536         22.04214333    
HE        -684.2837183        -497.9317980         22.12230741    
HE        -685.2029545        -496.5783994         22.77163556    
C         -689.4280429        -495.2362796         17.98808596    
O         -688.8698740        -494.6676705         17.04650556    
N         -690.6231861        -495.8107890         17.85559749    
H         -690.9660382        -496.3069451         18.66934974    
CA        -691.5443898        -495.7788927         16.71887198    
HA        -691.2651364        -494.9621031         16.05081567    
CB        -691.4037784        -497.1397772         15.99632035    
HB        -690.3542127        -497.4368502         15.98793242    
HB        -691.9504042        -497.8988997         16.55778477    
CG        -691.8534963        -497.1553159         14.54382335    
OD        -691.6960071        -496.1999932         13.79705286    
ND        -692.4040561        -498.2550668         14.07999337    
HD        -692.6732764        -498.2862757         13.10729045    
HD        -692.5079421        -499.0652575         14.67382928    
C         -692.9615307        -495.5198033         17.30027602    
O         -693.2401252        -495.9462710         18.42123146    
N         -693.9061902        -494.8375320         16.65315559    
H         -694.7303661        -494.6391250         17.20508686    
CA        -693.9776014        -494.3834883         15.26331820    
HA        -692.9853342        -494.3871613         14.82121171    
CB        -694.8837763        -495.3806198         14.51667457    
HB        -694.4426531        -496.3752973         14.56715738    
HB        -694.9315598        -495.1043143         13.46236253    
SG        -696.5808581        -495.4814459         15.16152236    
C         -694.5464386        -492.9449723         15.15714601    
O         -695.1473658        -492.4551657         16.12001594    
N         -694.4399013        -492.2704437         13.99075399    
CD        -693.6327367        -492.6518062         12.83734757    
HD        -694.2134216        -493.3020247         12.18160931    
HD        -692.7014549        -493.1390576         13.12589495    
CG        -693.3186568        -491.3443721         12.11665272    
HG        -693.1350842        -491.5010905         11.05325917    
HG        -692.4649869        -490.8573331         12.59071800    
CB        -694.5834902        -490.5263907         12.36281134    
HB        -695.3505083        -490.8290635         11.64718515    
HB        -694.3919958        -489.4556017         12.28411543    
CA        -694.9977088        -490.9246910         13.78505944    
HA        -694.5221395        -490.2441017         14.49269490    
C         -696.5261708        -490.8264141         13.95741743    
O         -697.0439354        -489.7547810         14.28339639    
N         -697.2517044        -491.9365161         13.76015427    
H         -696.7633638        -492.7623246         13.44513011    
CA        -698.7134026        -492.0207046         13.89738553    
HA        -699.1428442        -491.1245303         13.44781772    
CB        -699.1804626        -493.2466283         13.08381101    
HB        -698.7742975        -493.1636314         12.07391761    
HB        -698.7565273        -494.1423438         13.53925091    
CG        -700.7057535        -493.4443216         12.97029624    
HG        -701.1331930        -493.5856640         13.96202231    
CD        -701.4049071        -492.2662247         12.28686984    
HD        -700.9612046        -492.0833223         11.30782242    
HD        -702.4656528        -492.4870895         12.16618558    
HD        -701.3128333        -491.3706452         12.89986733    
CD        -700.9948134        -494.7036056         12.15128082    
HD        -702.0708211        -494.8719403         12.10000061    
HD        -700.5981303        -494.5955325         11.14120745    
HD        -700.5302257        -495.5665120         12.62924791    
C         -699.1945573        -492.0697144         15.36771653    
O         -700.3422435        -491.7075534         15.64616813    
N         -698.3321071        -492.4878649         16.30731667    
H         -697.3959462        -492.7229170         16.00463729    
CA        -698.6260752        -492.6305641         17.74525319    
HA        -698.1289389        -491.8327751         18.29596447    
HA        -699.6970669        -492.5461437         17.92694806    
C         -698.1608107        -493.9665923         18.32091777    
O         -697.0095528        -494.0374117         18.80061692    
OX        -698.9572614        -494.9317629         18.30902866    
   134
Energy=    -351.792188613111    
N         -698.0611788        -498.2838908         18.52222168    
H1        -698.0918182        -497.3192225         18.83157623    
H2        -698.3951744        -498.8883235         19.25853173    
H3        -698.6949623        -498.3649896         17.74107504    
CA        -696.6879431        -498.6701007         18.09885593    
HA        -696.7847845        -499.6297660         17.58666403    
CB        -696.0801689        -497.7008264         17.06198743    
HB        -696.1007024        -496.6849615         17.45639878    
HB        -695.0394055        -497.9903624         16.91359635    
SG        -696.8439567        -497.6828888         15.41127568    
C         -695.7306938        -498.9683187         19.27827625    
O         -695.2950773        -500.1126498         19.39173257    
N         -695.3378646        -498.0618717         20.19080058    
H         -694.7282699        -498.4524527         20.89790523    
CA        -695.7436963        -496.6585985         20.41680398    
HA        -696.1864287        -496.2544683         19.51208354    
CB        -696.8201201        -496.6346947         21.52193982    
HB        -697.2575233        -495.6354455         21.55293531    
HB        -697.6262592        -497.3179413         21.25513617    
CG        -696.3313550        -496.9958781         22.91770412    
CD        -696.1306844        -498.3445122         23.27885348    
HD        -696.3449275        -499.1356864         22.57073953    
CE        -695.6538347        -498.6726391         24.56360029    
HE        -695.4949858        -499.7079846         24.83388144    
CZ        -695.3863857        -497.6495378         25.50010740    
OH        -694.9226089        -497.9561369         26.74204554    
HH        -694.8177343        -498.9091310         26.85906515    
CE        -695.6096300        -496.3017624         25.14674243    
HE        -695.4093091        -495.5215932         25.86811716    
CD        -696.0849226        -495.9784278         23.86075248    
HD        -696.2501889        -494.9411275         23.59444641    
C         -694.5822173        -495.6925746         20.77387623    
O         -694.8078389        -494.4829328         20.85959817    
N         -693.3526676        -496.1946209         20.96585451    
H         -693.2205595        -497.1811396         20.79563020    
CA        -692.1372383        -495.4213774         21.31357301    
HA        -692.2961605        -494.3831450         21.01745657    
CB        -691.8394533        -495.4374582         22.83595259    
HB        -690.8049808        -495.1158982         22.97249029    
CG        -692.7162797        -494.3955019         23.54929256    
HG        -693.7631657        -494.6794556         23.48513421    
HG        -692.5865955        -493.4177824         23.08400994    
HG        -692.4314160        -494.3092476         24.59726080    
CG        -691.9790280        -496.8469851         23.46003622    
HG        -693.0224286        -497.1629734         23.43095265    
HG        -691.3943598        -497.5529565         22.86973747    
CD        -691.4905307        -496.9399207         24.91105042    
HD        -691.5233408        -497.9806399         25.23452935    
HD        -690.4642723        -496.5783382         24.98322011    
HD        -692.1331254        -496.3545109         25.56822577    
C         -690.9107499        -495.9016536         20.51922011    
O         -690.7897127        -497.0877926         20.20797354    
N         -690.0076986        -494.9674717         20.18418075    
H         -690.1768084        -494.0384517         20.54783288    
CA        -688.9074311        -495.0636098         19.19359253    
HA        -688.4252403        -494.0845949         19.17499198    
CB        -687.8227639        -496.0648322         19.63798680    
HB        -688.2364158        -497.0733643         19.65852698    
HB        -687.0208494        -496.0457520         18.89811122    
CG        -687.2218748        -495.7312381         21.01630353    
HG        -688.0017696        -495.7848079         21.77637354    
HG        -686.8361611        -494.7112412         20.99789751    
CD        -686.0865493        -496.6694516         21.43661986    
OE        -685.7023020        -497.6123927         20.75207043    
NE        -685.4952919        -496.4493669         22.59400598    
HE        -684.7453364        -497.0635257         22.87828765    
HE        -685.7900855        -495.6790189         23.17816988    
C         -689.3745271        -495.3117348         17.74019419    
O         -688.8948480        -494.6593310         16.80982786    
N         -690.3641346        -496.1855323         17.55479113    
H         -690.6531319        -496.7124023         18.37297828    
CA        -691.2258150        -496.3212642         16.37900407    
HA        -691.0953146        -495.4524939         15.73196096    
CB        -690.7951721        -497.5913921         15.62022150    
HB        -689.7544076        -497.4898991         15.31132147    
HB        -690.8601936        -498.4511979         16.28869256    
CG        -691.6253801        -497.8561194         14.37557159    
OD        -691.5727461        -497.1223408         13.39872067    
ND        -692.4340005        -498.8929012         14.37179658    
HD        -692.9620125        -499.0892740         13.53382537    
HD        -692.4653290        -499.5200852         15.16258237    
C         -692.6884395        -496.3662705         16.87974448    
O         -692.9608901        -496.9742468         17.91387947    
N         -693.6838298        -495.7419506         16.25132632    
H         -694.5446298        -495.7188210         16.77520418    
CA        -693.7425743        -495.0459535         14.96252768    
HA        -692.7670232        -495.0549336         14.48002040    
CB        -694.7364784        -495.8296310         14.08179763    
HB        -694.4045397        -496.8651775         13.99873710    
HB        -694.7203867        -495.4125916         13.07431570    
SG        -696.4614363        -495.8156350         14.66563364    
C         -694.1851524        -493.5711423         15.15407600    
O         -694.6438721        -493.2192498         16.24690602    
N         -694.1253015        -492.7053850         14.11863119    
CD        -693.4964619        -492.9436058         12.82432194    
HD        -694.2172792        -493.4025211         12.14626785    
HD        -692.6042137        -493.5646353         12.90589239    
CG        -693.1130096        -491.5628548         12.30046548    
HG        -693.0695462        -491.5398284         11.21113700    
HG        -692.1605122        -491.2541733         12.73425448    
CB        -694.2384349        -490.6873938         12.84510385    
HB        -695.1163891        -490.7898843         12.20422433    
HB        -693.9374614        -489.6414513         12.91497644    
CA        -694.5174229        -491.2905748         14.22682238    
HA        -693.8601715        -490.8117754         14.95416779    
C         -695.9779928        -491.0399934         14.65324561    
O         -696.2830527        -489.9815018         15.20935120    
N         -696.8788543        -492.0067681         14.42568599    
H         -696.5703815        -492.8227544         13.91696205    
CA        -698.2932782        -491.9461608         14.82760764    
HA        -698.6586165        -490.9424905         14.60703804    
CB        -699.0667191        -492.9505736         13.94715900    
HB        -698.8224873        -492.7506175         12.90214893    
HB        -698.7154135        -493.9549457         14.18435284    
CG        -700.6022668        -492.9373934         14.08955358    
HG        -700.8794721        -493.1930582         15.11125214    
CD        -701.2182340        -491.5834665         13.72714013    
HD        -700.9156312        -491.2907966         12.72134487    
HD        -702.3055104        -491.6497403         13.77136836    
HD        -700.8959541        -490.8241932         14.43841859    
CD        -701.2064492        -493.9933106         13.16202792    
HD        -702.2893407        -494.0180820         13.28641690    
HD        -700.9679568        -493.7631781         12.12307111    
HD        -700.8049375        -494.9753202         13.41368077    
C         -698.5175594        -492.1913071         16.34080639    
O         -699.5453472        -491.7716033         16.88134193    
N         -697.5605277        -492.8314818         17.03117454    
H         -696.7231029        -493.0909317         16.52565759    
CA        -697.6127707        -493.1703573         18.46583608    
HA        -696.6250937        -493.4878505         18.79733366    
HA        -697.8876030        -492.2851383         19.03866504    
C         -698.6010499        -494.2877533         18.80635457    
O         -698.3326133        -495.4515159         18.43279838    
OX        -699.6163786        -494.0021134         19.47966014    
