   134
 Energy=    -365.953451180997
N          -698.1684084000     -499.6277379000       18.4117613400
H1         -698.6516510000     -498.7789282000       18.6811272600
H2         -698.3237139000     -500.3367016000       19.1134139200
H3         -698.5841571000     -499.9473459000       17.5495862200
CA         -696.7114881000     -499.3860364000       18.2162398200
HA         -696.3155947000     -500.2891539000       17.7464941700
CB         -696.4084313000     -498.2351006000       17.2234844400
HB         -696.8907078000     -497.3135742000       17.5514340900
HB         -695.3322550000     -498.0530764000       17.2142366200
SG         -696.9526316000     -498.5736791000       15.5182992900
C          -695.9401760000     -499.2955427000       19.5511517500
O          -695.1899563000     -500.2201453000       19.8566386000
N          -696.0535129000     -498.2688891000       20.4081788500
H          -695.5106258000     -498.3826907000       21.2550174300
CA         -696.8694489000     -497.0415486000       20.3334039100
HA         -697.6325590000     -497.1588224000       19.5730464600
CB         -697.6278881000     -496.8586221000       21.6607846200
HB         -698.3905974000     -496.0926963000       21.5112949000
HB         -698.1573750000     -497.7838371000       21.8939422200
CG         -696.7810434000     -496.4663176000       22.8617286600
CD         -696.7227459000     -495.1176875000       23.2665073500
HD         -697.2838461000     -494.3656474000       22.7246456600
CE         -695.9376217000     -494.7395392000       24.3733446100
HE         -695.8916487000     -493.7019278000       24.6750941300
CZ         -695.2083873000     -495.7166732000       25.0861990800
OH         -694.4439064000     -495.3624583000       26.1546322000
HH         -694.4849312000     -494.4126205000       26.3243297900
CE         -695.2817129000     -497.0705854000       24.6930395600
HE         -694.7325568000     -497.8169325000       25.2507617900
CD         -696.0722807000     -497.4449392000       23.5885163300
HD         -696.1412013000     -498.4893535000       23.3093770600
C          -696.0692334000     -495.7805086000       19.9420964700
O          -696.6623256000     -494.8078375000       19.4762216900
N          -694.7364001000     -495.8163986000       20.0678450200
H          -694.3267416000     -496.6614401000       20.4401083500
CA         -693.7878343000     -494.7683800000       19.6413248700
HA         -694.2461451000     -494.2014478000       18.8323110800
CB         -693.4532668000     -493.7820685000       20.7921188300
HB         -692.6412283000     -493.1385369000       20.4501670700
CG         -694.6413369000     -492.8472243000       21.0698107200
HG         -695.4613894000     -493.3995989000       21.5209889100
HG         -694.9845325000     -492.3995409000       20.1366996500
HG         -694.3419927000     -492.0425931000       21.7406243500
CG         -692.9586812000     -494.5125837000       22.0632276800
HG         -693.7620409000     -495.1228493000       22.4748442800
HG         -692.1374402000     -495.1770848000       21.7934858000
CD         -692.4490104000     -493.5744414000       23.1640856800
HD         -692.0292041000     -494.1688660000       23.9760407100
HD         -691.6731154000     -492.9196794000       22.7659556900
HD         -693.2669327000     -492.9743070000       23.5621224000
C          -692.4927879000     -495.3742978000       19.0692805700
O          -692.1988136000     -496.5520363000       19.2880364600
N          -691.7020449000     -494.5422055000       18.3786827600
H          -692.0599839000     -493.6025725000       18.2534572100
CA         -690.3951851000     -494.8183424000       17.7452512800
HA         -690.0802827000     -493.8812635000       17.2823097000
CB         -689.3229566000     -495.1444831000       18.8041008700
HB         -689.5799519000     -496.0749038000       19.3117358500
HB         -688.3717546000     -495.2925425000       18.2900341700
CG         -689.1419812000     -494.0274684000       19.8497847700
HG         -690.0713039000     -493.8897993000       20.4026585500
HG         -688.9122040000     -493.0935436000       19.3354063900
CD         -688.0284203000     -494.3076056000       20.8634240300
OE         -687.3599468000     -495.3361751000       20.8633113700
NE         -687.7805776000     -493.3951084000       21.7816200400
HE         -687.0473060000     -493.5726180000       22.4533141600
HE         -688.3129024000     -492.5364531000       21.8044180400
C          -690.3986087000     -495.8497555000       16.5948959600
O          -689.8424910000     -495.5691647000       15.5307354400
N          -691.0361980000     -497.0116290000       16.7643922600
H          -691.4775980000     -497.1664376000       17.6652064000
CA         -691.1878556000     -498.0529247000       15.7414172900
HA         -691.1168530000     -497.6027689000       14.7503362100
CB         -690.0067803000     -499.0370402000       15.8843444900
HB         -689.0683079000     -498.4861101000       15.8176362300
HB         -690.0460554000     -499.5151857000       16.8638226600
CG         -689.9834515000     -500.1196274000       14.8124184000
OD         -690.7204770000     -500.1009149000       13.8337755200
ND         -689.1163033000     -501.0978959000       14.9519216400
HD         -689.0831333000     -501.8197757000       14.2466006300
HD         -688.4986825000     -501.1186688000       15.7509368900
C          -692.5664552000     -498.7549739000       15.8583985200
O          -692.7162347000     -499.7194520000       16.6101520600
N          -693.6172652000     -498.3183480000       15.1540457800
H          -694.4559362000     -498.8719903000       15.2413991400
CA         -693.7111343000     -497.1183609000       14.3098806800
HA         -692.9029859000     -497.1694237000       13.5806895400
CB         -695.0345403000     -497.1741482000       13.5277029900
HB         -695.1137925000     -498.1425208000       13.0295954800
HB         -694.9882905000     -496.4232984000       12.7374507600
SG         -696.5697523000     -496.8708355000       14.4595935000
C          -693.5846021000     -495.7928438000       15.1065956000
O          -693.8157573000     -495.7992989000       16.3193919200
N          -693.2359765000     -494.6531461000       14.4657980600
CD         -692.9143373000     -494.5190102000       13.0475861300
HD         -693.8354868000     -494.3951566000       12.4763132900
HD         -692.3458030000     -495.3671084000       12.6670726500
CG         -692.0669338000     -493.2547795000       12.9302961300
HG         -692.1722489000     -492.7854457000       11.9516715800
HG         -691.0216952000     -493.4907145000       13.1369159900
CB         -692.6289316000     -492.3791924000       14.0454429400
HB         -693.5542093000     -491.9097107000       13.7058867200
HB         -691.9108776000     -491.6232638000       14.3657185300
CA         -692.9187635000     -493.3933369000       15.1564982000
HA         -692.0011117000     -493.5418423000       15.7240337900
C          -694.0038556000     -492.8765111000       16.1147561600
O          -693.6724390000     -492.3768793000       17.1927488200
N          -695.2820379000     -493.0401904000       15.7524161400
H          -695.4590822000     -493.4310017000       14.8370985800
CA         -696.4481969000     -492.8145199000       16.6151437100
HA         -696.1840440000     -493.0996090000       17.6332758800
CB         -696.8084855000     -491.3141309000       16.5921520200
HB         -695.9358183000     -490.7372972000       16.9016171000
HB         -697.0442233000     -491.0329651000       15.5644363000
CG         -697.9966483000     -490.9183338000       17.4909968600
HG         -698.8819172000     -491.4807827000       17.1951171200
CD         -697.7217525000     -491.1732289000       18.9749174000
HD         -696.8167335000     -490.6495718000       19.2836313600
HD         -698.5626242000     -490.8189297000       19.5713522200
HD         -697.6021576000     -492.2391650000       19.1592917500
CD         -698.2983182000     -489.4294255000       17.3155566800
HD         -699.1601868000     -489.1527995000       17.9234007800
HD         -697.4369521000     -488.8328451000       17.6180095900
HD         -698.5292694000     -489.2226370000       16.2701855600
C          -697.6344120000     -493.6842460000       16.1514922000
O          -697.9873650000     -493.6716959000       14.9672513100
N          -698.2635541000     -494.4144757000       17.0798588300
H          -697.8971865000     -494.3866469000       18.0263949900
CA         -699.4301482000     -495.2771594000       16.8261986300
HA         -700.2503371000     -494.6763259000       16.4343066500
HA         -699.1737684000     -496.0263870000       16.0776794600
C          -699.9310404000     -495.9998049000       18.0738727100
O          -700.5810702000     -495.3449549000       18.9182843600
OX         -699.6725009000     -497.2180306000       18.1926235600
   134
 Energy=    -360.088740476607
N          -698.1899012000     -499.4769423000       18.5895808000
H1         -698.6455817000     -498.5974474000       18.8037590500
H2         -698.3956216000     -500.1420079000       19.3206638000
H3         -698.5934803000     -499.8241355000       17.7323194200
CA         -696.7183659000     -499.3062556000       18.4302211500
HA         -696.3459181000     -500.2575741000       18.0438494400
CB         -696.3340418000     -498.2501215000       17.3605186500
HB         -696.7555709000     -497.2776221000       17.6138804300
HB         -695.2478857000     -498.1401506000       17.3473124000
SG         -696.8956055000     -498.6656146000       15.6778220000
C          -695.9969091000     -499.1511153000       19.7885478700
O          -695.3085313000     -500.0860230000       20.1926704500
N          -696.0990856000     -498.0632236000       20.5696990600
H          -695.6472348000     -498.1663945000       21.4703279900
CA         -696.8222124000     -496.7942662000       20.3561537200
HA         -697.4897952000     -496.9143768000       19.5127674000
CB         -697.7634276000     -496.5088946000       21.5463959400
HB         -698.3011910000     -495.5839901000       21.3328694100
HB         -698.5128628000     -497.3019373000       21.5507435800
CG         -697.2264746000     -496.4020986000       22.9736460700
CD         -698.1659985000     -496.3728916000       24.0255117600
HD         -699.2247510000     -496.4329667000       23.8011736000
CE         -697.7464030000     -496.2631482000       25.3658869000
HE         -698.4779457000     -496.2419089000       26.1625788300
CZ         -696.3704785000     -496.1781928000       25.6680761400
OH         -695.9519395000     -496.0701765000       26.9583559300
HH         -696.6954792000     -496.0629073000       27.5751914800
CE         -695.4251226000     -496.2049759000       24.6217430500
HE         -694.3714374000     -496.1378881000       24.8564160500
CD         -695.8513646000     -496.3162633000       23.2835443400
HD         -695.1057726000     -496.3327374000       22.5086303900
C          -695.9416264000     -495.5871100000       19.9636364000
O          -696.4829082000     -494.5672332000       19.5365627800
N          -694.6080317000     -495.7108358000       20.0383347100
H          -694.2322696000     -496.6010213000       20.3363947300
CA         -693.6229975000     -494.6877294000       19.6283995500
HA         -694.0859014000     -494.0568835000       18.8703249000
CB         -693.1990087000     -493.7692321000       20.8078491200
HB         -692.4982379000     -493.0364760000       20.4040409900
CG         -694.3957908000     -492.9666634000       21.3480461100
HG         -695.0749866000     -493.6165730000       21.8997709900
HG         -694.9337115000     -492.5029133000       20.5204507900
HG         -694.0503527000     -492.1723562000       22.0092266700
CG         -692.4610792000     -494.5343663000       21.9337339400
HG         -693.1350666000     -495.2517048000       22.3975293100
HG         -691.6267067000     -495.0896613000       21.5060203800
CD         -691.8849465000     -493.6301889000       23.0309384000
HD         -691.2890031000     -494.2330521000       23.7167367100
HD         -691.2473183000     -492.8649889000       22.5868512200
HD         -692.6877376000     -493.1568222000       23.5959903000
C          -692.3814268000     -495.3214569000       18.9736999300
O          -692.1109127000     -496.5090689000       19.1670354500
N          -691.5999225000     -494.5016208000       18.2581262000
H          -691.9403571000     -493.5530430000       18.1540342300
CA         -690.3158110000     -494.7968043000       17.5859801200
HA         -690.0099025000     -493.8692182000       17.0985137900
CB         -689.2147318000     -495.1119167000       18.6179106300
HB         -689.4795679000     -496.0130345000       19.1723557300
HB         -688.2865166000     -495.3075922000       18.0783453000
CG         -688.9662391000     -493.9576909000       19.6077747400
HG         -689.8767667000     -493.7554753000       20.1713680800
HG         -688.7100096000     -493.0582158000       19.0466321300
CD         -687.8431359000     -494.2376482000       20.6108314200
OE         -687.2108946000     -495.2884633000       20.6386894600
NE         -687.5454921000     -493.2995687000       21.4874705300
HE         -686.8055031000     -493.4767158000       22.1518395100
HE         -688.0468815000     -492.4222024000       21.4860949700
C          -690.3557267000     -495.8459018000       16.4516996900
O          -689.8478232000     -495.5759959000       15.3610330900
N          -690.9680933000     -497.0134508000       16.6660013900
H          -691.3750529000     -497.1557559000       17.5849074700
CA         -691.1460289000     -498.0768361000       15.6711084600
HA         -691.1174789000     -497.6470018000       14.6690187600
CB         -689.9500175000     -499.0459051000       15.7893041400
HB         -689.0207955000     -498.4873503000       15.6741007400
HB         -689.9462423000     -499.5027212000       16.7796785000
CG         -689.9571125000     -500.1515470000       14.7409746300
OD         -690.7323332000     -500.1617960000       13.7921615000
ND         -689.0745640000     -501.1177791000       14.8671547500
HD         -689.0613819000     -501.8546924000       14.1768830100
HD         -688.4257839000     -501.1147458000       15.6413581200
C          -692.5119957000     -498.7881431000       15.8586618100
O          -692.6221981000     -499.7373690000       16.6364041300
N          -693.5943893000     -498.3737617000       15.1897924800
H          -694.4266319000     -498.9266080000       15.3287630300
CA         -693.7265965000     -497.2006193000       14.3138678100
HA         -692.9450962000     -497.2713491000       13.5580202700
CB         -695.0752404000     -497.2873812000       13.5798879300
HB         -695.1582883000     -498.2662613000       13.1034350100
HB         -695.0657575000     -496.5510871000       12.7746555300
SG         -696.5823063000     -496.9873935000       14.5572256800
C          -693.5777347000     -495.8504232000       15.0642267400
O          -693.7817901000     -495.8171187000       16.2814164000
N          -693.2373798000     -494.7336646000       14.3796315500
CD         -692.9545930000     -494.6455002000       12.9494390000
HD         -693.8903292000     -494.5282847000       12.4008863100
HD         -692.4060314000     -495.5105061000       12.5780694800
CG         -692.0967844000     -493.3956627000       12.7701583400
HG         -692.2250508000     -492.9543289000       11.7812989200
HG         -691.0487338000     -493.6380697000       12.9537152000
CB         -692.6160305000     -492.4805275000       13.8740404800
HB         -693.5447219000     -492.0091933000       13.5465897200
HB         -691.8800120000     -491.7248483000       14.1512214000
CA         -692.8865792000     -493.4572887000       15.0228596000
HA         -691.9555812000     -493.5990716000       15.5694967200
C          -693.9379244000     -492.8970896000       15.9938339800
O          -693.5724923000     -492.3678293000       17.0465482100
N          -695.2265865000     -493.0535698000       15.6693434300
H          -695.4327255000     -493.4733364000       14.7731142200
CA         -696.3669525000     -492.7719457000       16.5490534800
HA         -696.0791066000     -493.0076783000       17.5731795000
CB         -696.7124094000     -491.2707166000       16.4573669600
HB         -695.8237120000     -490.6890082000       16.7063617600
HB         -696.9793007000     -491.0419333000       15.4242682900
CG         -697.8651292000     -490.8123730000       17.3723032400
HG         -698.7655898000     -491.3795451000       17.1376069100
CD         -697.5415152000     -490.9894602000       18.8577825800
HD         -696.6172914000     -490.4666425000       19.1052211300
HD         -698.3547055000     -490.5877344000       19.4625334200
HD         -697.4327469000     -492.0455313000       19.0968524100
CD         -698.1572664000     -489.3316511000       17.1257026800
HD         -698.9952208000     -489.0119555000       17.7457433600
HD         -697.2800808000     -488.7299686000       17.3662741000
HD         -698.4213236000     -489.1792262000       16.0788255500
C          -697.5709994000     -493.6521642000       16.1588338300
O          -697.9394407000     -493.7099332000       14.9805891100
N          -698.1975450000     -494.3147092000       17.1387664900
H          -697.8239518000     -494.2309018000       18.0788228200
CA         -699.3824427000     -495.1684658000       16.9433099100
HA         -700.1991035000     -494.5709344000       16.5390536600
HA         -699.1512855000     -495.9522147000       16.2222087300
C          -699.8774526000     -495.8308348000       18.2254784100
O          -700.4813822000     -495.1255713000       19.0632632600
OX         -699.6602462000     -497.0536062000       18.3754677300
   134
 Energy=    -365.974807794259
N          -698.3541625000     -499.4409869000       18.4298451700
H1         -698.8019148000     -498.5692146000       18.6869292300
H2         -698.5443085000     -500.1348720000       19.1379645600
H3         -698.7780050000     -499.7517565000       17.5683796700
CA         -696.8869759000     -499.2645409000       18.2414432800
HA         -696.5275973000     -500.1889858000       17.7839915600
CB         -696.5283264000     -498.1386856000       17.2385119300
HB         -696.9723775000     -497.1936798000       17.5533740800
HB         -695.4452565000     -498.0033489000       17.2345120600
SG         -697.0760338000     -498.4721847000       15.5334491400
C          -696.1207246000     -499.1928198000       19.5803974000
O          -695.4130749000     -500.1455402000       19.9007064600
N          -696.1948679000     -498.1529078000       20.4256441000
H          -695.6626512000     -498.2807396000       21.2772552200
CA         -696.9566120000     -496.8924509000       20.3324426900
HA         -697.7193240000     -496.9849182000       19.5682759700
CB         -697.7146841000     -496.6628182000       21.6527753900
HB         -698.4415347000     -495.8652001000       21.4908664200
HB         -698.2862500000     -497.5612545000       21.8912326400
CG         -696.8585279000     -496.2968467000       22.8553754700
CD         -696.2004999000     -497.2991924000       23.5976204400
HD         -696.3172265000     -498.3421755000       23.3289608200
CE         -695.3987602000     -496.9514089000       24.7032080200
HE         -694.8913984000     -497.7223963000       25.2675430200
CZ         -695.2641880000     -495.5965131000       25.0804367800
OH         -694.4916574000     -495.2514164000       26.1460502000
HH         -694.0879717000     -496.0249547000       26.5602554500
CE         -695.9431468000     -494.5963120000       24.3523169800
HE         -695.8440805000     -493.5611677000       24.6485161300
CD         -696.7397686000     -494.9480085000       23.2454254300
HD         -697.2616415000     -494.1762451000       22.6923460200
C          -696.1002342000     -495.6713563000       19.9331754300
O          -696.6479213000     -494.6791558000       19.4530924600
N          -694.7709459000     -495.7632587000       20.0679960300
H          -694.4004103000     -496.6210605000       20.4518716900
CA         -693.7753940000     -494.7618626000       19.6363947300
HA         -694.2038148000     -494.1849013000       18.8181475700
CB         -693.4056098000     -493.7778727000       20.7784223600
HB         -692.5645702000     -493.1737413000       20.4346769300
CG         -694.5538120000     -492.7894883000       21.0377455300
HG         -695.3996382000     -493.3007668000       21.4896652200
HG         -694.8716132000     -492.3380950000       20.0974715200
HG         -694.2240654000     -491.9909765000       21.7015708700
CG         -692.9501954000     -494.5145945000       22.0605648500
HG         -693.7804370000     -495.0877926000       22.4720208200
HG         -692.1545264000     -495.2143613000       21.8036773000
CD         -692.4112773000     -493.5867314000       23.1561954800
HD         -692.0209636000     -494.1893548000       23.9767517700
HD         -691.6074863000     -492.9668678000       22.7575849300
HD         -693.2076565000     -492.9512285000       23.5429094000
C          -692.5041460000     -495.4293206000       19.0797096100
O          -692.2625386000     -496.6160734000       19.3133542000
N          -691.6740358000     -494.6398238000       18.3853127000
H          -691.9904064000     -493.6871363000       18.2474115000
CA         -690.3763611000     -494.9789712000       17.7637174200
HA         -690.0185470000     -494.0615595000       17.2926332100
CB         -689.3257828000     -495.3389182000       18.8332616900
HB         -689.6258002000     -496.2515895000       19.3494426600
HB         -688.3786687000     -495.5336015000       18.3272533400
CG         -689.1033369000     -494.2189025000       19.8676786000
HG         -690.0293068000     -494.0350129000       20.4126787100
HG         -688.8302286000     -493.3016669000       19.3445253600
CD         -688.0093099000     -494.5351914000       20.8918959500
OE         -687.3858369000     -495.5915276000       20.9077215700
NE         -687.7281488000     -493.6238385000       21.8015914200
HE         -687.0074606000     -493.8250897000       22.4801741100
HE         -688.2231099000     -492.7428701000       21.8112726500
C          -690.4170101000     -496.0221632000       16.6247507800
O          -689.8423943000     -495.7778691000       15.5614667900
N          -691.1054319000     -497.1533908000       16.8025178400
H          -691.5588803000     -497.2788665000       17.7019088200
CA         -691.2955579000     -498.1985085000       15.7899158400
HA         -691.1989064000     -497.7629144000       14.7945057500
CB         -690.1590940000     -499.2310716000       15.9515234400
HB         -689.1972610000     -498.7219711000       15.8852033600
HB         -690.2251945000     -499.6961349000       16.9358451600
CG         -690.1758662000     -500.3255289000       14.8915950400
OD         -690.9052561000     -500.2859383000       13.9078670400
ND         -689.3526967000     -501.3386860000       15.0475472600
HD         -689.3463357000     -502.0691296000       14.3503381800
HD         -688.7415525000     -501.3771806000       15.8508731100
C          -692.7039530000     -498.8390074000       15.9051657800
O          -692.9000501000     -499.7876971000       16.6662969200
N          -693.7304373000     -498.3652588000       15.1890287900
H          -694.5928002000     -498.8811727000       15.2766766800
CA         -693.7670188000     -497.1717532000       14.3313536000
HA         -692.9572647000     -497.2657130000       13.6082334600
CB         -695.0866637000     -497.1790069000       13.5409064800
HB         -695.2046245000     -498.1485282000       13.0527966400
HB         -695.0030077000     -496.4396902000       12.7428936700
SG         -696.6131224000     -496.7992979000       14.4590779200
C          -693.5883053000     -495.8442034000       15.1145710100
O          -693.8270624000     -495.8272872000       16.3257924000
N          -693.1867947000     -494.7277519000       14.4638817200
CD         -692.8508800000     -494.6232878000       13.0464830900
HD         -693.7622656000     -494.4661710000       12.4677784300
HD         -692.3171416000     -495.4992583000       12.6789342800
CG         -691.9489850000     -493.3981243000       12.9212253400
HG         -692.0278850000     -492.9355309000       11.9369217400
HG         -690.9162035000     -493.6765871000       13.1373315700
CB         -692.4795558000     -492.4868623000       14.0231068600
HB         -693.3815953000     -491.9817334000       13.6723650400
HB         -691.7315416000     -491.7590800000       14.3399882200
CA         -692.8197418000     -493.4752406000       15.1430691200
HA         -691.9128643000     -493.6568932000       15.7182289500
C          -693.8873757000     -492.9015694000       16.0885066500
O          -693.5413249000     -492.4048717000       17.1632496900
N          -695.1691791000     -493.0139438000       15.7194796000
H          -695.3572936000     -493.4068114000       14.8072556100
CA         -696.3298114000     -492.7286382000       16.5719436800
HA         -696.0845544000     -493.0135935000       17.5948318300
CB         -696.6247489000     -491.2144409000       16.5303701700
HB         -695.7299230000     -490.6724301000       16.8395069200
HB         -696.8416308000     -490.9347327000       15.4981143600
CG         -697.8003295000     -490.7578067000       17.4168264500
HG         -698.7072074000     -491.2847537000       17.1210326300
CD         -697.5460743000     -491.0079045000       18.9052341600
HD         -696.6212475000     -490.5203820000       19.2144253300
HD         -698.3746028000     -490.6110992000       19.4921031100
HD         -697.4738024000     -492.0759034000       19.1018856600
CD         -698.0362286000     -489.2592953000       17.2233131100
HD         -698.8891421000     -488.9390191000       17.8222922700
HD         -697.1517958000     -488.6971462000       17.5251490400
HD         -698.2514312000     -489.0543015000       16.1742346600
C          -697.5496147000     -493.5514269000       16.1097708100
O          -697.8943268000     -493.5367359000       14.9231290800
N          -698.2154997000     -494.2435313000       17.0417125200
H          -697.8541936000     -494.2210823000       17.9903358200
CA         -699.4167124000     -495.0577813000       16.7895196200
HA         -700.2076968000     -494.4264370000       16.3857395800
HA         -699.1883264000     -495.8255568000       16.0507945400
C          -699.9561485000     -495.7443785000       18.0414740800
O          -700.5824974000     -495.0528454000       18.8744591900
OX         -699.7512910000     -496.9712555000       18.1749767000
