   134
Energy=    -365.974807794259    
N         -698.3541625        -499.4409869         18.42984517    
H1        -698.8019148        -498.5692146         18.68692923    
H2        -698.5443085        -500.1348720         19.13796456    
H3        -698.7780050        -499.7517565         17.56837967    
CA        -696.8869759        -499.2645409         18.24144328    
HA        -696.5275973        -500.1889858         17.78399156    
CB        -696.5283264        -498.1386856         17.23851193    
HB        -696.9723775        -497.1936798         17.55337408    
HB        -695.4452565        -498.0033489         17.23451206    
SG        -697.0760338        -498.4721847         15.53344914    
C         -696.1207246        -499.1928198         19.58039740    
O         -695.4130749        -500.1455402         19.90070646    
N         -696.1948679        -498.1529078         20.42564410    
H         -695.6626512        -498.2807396         21.27725522    
CA        -696.9566120        -496.8924509         20.33244269    
HA        -697.7193240        -496.9849182         19.56827597    
CB        -697.7146841        -496.6628182         21.65277539    
HB        -698.4415347        -495.8652001         21.49086642    
HB        -698.2862500        -497.5612545         21.89123264    
CG        -696.8585279        -496.2968467         22.85537547    
CD        -696.2004999        -497.2991924         23.59762044    
HD        -696.3172265        -498.3421755         23.32896082    
CE        -695.3987602        -496.9514089         24.70320802    
HE        -694.8913984        -497.7223963         25.26754302    
CZ        -695.2641880        -495.5965131         25.08043678    
OH        -694.4916574        -495.2514164         26.14605020    
HH        -694.0879717        -496.0249547         26.56025545    
CE        -695.9431468        -494.5963120         24.35231698    
HE        -695.8440805        -493.5611677         24.64851613    
CD        -696.7397686        -494.9480085         23.24542543    
HD        -697.2616415        -494.1762451         22.69234602    
C         -696.1002342        -495.6713563         19.93317543    
O         -696.6479213        -494.6791558         19.45309246    
N         -694.7709459        -495.7632587         20.06799603    
H         -694.4004103        -496.6210605         20.45187169    
CA        -693.7753940        -494.7618626         19.63639473    
HA        -694.2038148        -494.1849013         18.81814757    
CB        -693.4056098        -493.7778727         20.77842236    
HB        -692.5645702        -493.1737413         20.43467693    
CG        -694.5538120        -492.7894883         21.03774553    
HG        -695.3996382        -493.3007668         21.48966522    
HG        -694.8716132        -492.3380950         20.09747152    
HG        -694.2240654        -491.9909765         21.70157087    
CG        -692.9501954        -494.5145945         22.06056485    
HG        -693.7804370        -495.0877926         22.47202082    
HG        -692.1545264        -495.2143613         21.80367730    
CD        -692.4112773        -493.5867314         23.15619548    
HD        -692.0209636        -494.1893548         23.97675177    
HD        -691.6074863        -492.9668678         22.75758493    
HD        -693.2076565        -492.9512285         23.54290940    
C         -692.5041460        -495.4293206         19.07970961    
O         -692.2625386        -496.6160734         19.31335420    
N         -691.6740358        -494.6398238         18.38531270    
H         -691.9904064        -493.6871363         18.24741150    
CA        -690.3763611        -494.9789712         17.76371742    
HA        -690.0185470        -494.0615595         17.29263321    
CB        -689.3257828        -495.3389182         18.83326169    
HB        -689.6258002        -496.2515895         19.34944266    
HB        -688.3786687        -495.5336015         18.32725334    
CG        -689.1033369        -494.2189025         19.86767860    
HG        -690.0293068        -494.0350129         20.41267871    
HG        -688.8302286        -493.3016669         19.34452536    
CD        -688.0093099        -494.5351914         20.89189595    
OE        -687.3858369        -495.5915276         20.90772157    
NE        -687.7281488        -493.6238385         21.80159142    
HE        -687.0074606        -493.8250897         22.48017411    
HE        -688.2231099        -492.7428701         21.81127265    
C         -690.4170101        -496.0221632         16.62475078    
O         -689.8423943        -495.7778691         15.56146679    
N         -691.1054319        -497.1533908         16.80251784    
H         -691.5588803        -497.2788665         17.70190882    
CA        -691.2955579        -498.1985085         15.78991584    
HA        -691.1989064        -497.7629144         14.79450575    
CB        -690.1590940        -499.2310716         15.95152344    
HB        -689.1972610        -498.7219711         15.88520336    
HB        -690.2251945        -499.6961349         16.93584516    
CG        -690.1758662        -500.3255289         14.89159504    
OD        -690.9052561        -500.2859383         13.90786704    
ND        -689.3526967        -501.3386860         15.04754726    
HD        -689.3463357        -502.0691296         14.35033818    
HD        -688.7415525        -501.3771806         15.85087311    
C         -692.7039530        -498.8390074         15.90516578    
O         -692.9000501        -499.7876971         16.66629692    
N         -693.7304373        -498.3652588         15.18902879    
H         -694.5928002        -498.8811727         15.27667668    
CA        -693.7670188        -497.1717532         14.33135360    
HA        -692.9572647        -497.2657130         13.60823346    
CB        -695.0866637        -497.1790069         13.54090648    
HB        -695.2046245        -498.1485282         13.05279664    
HB        -695.0030077        -496.4396902         12.74289367    
SG        -696.6131224        -496.7992979         14.45907792    
C         -693.5883053        -495.8442034         15.11457101    
O         -693.8270624        -495.8272872         16.32579240    
N         -693.1867947        -494.7277519         14.46388172    
CD        -692.8508800        -494.6232878         13.04648309    
HD        -693.7622656        -494.4661710         12.46777843    
HD        -692.3171416        -495.4992583         12.67893428    
CG        -691.9489850        -493.3981243         12.92122534    
HG        -692.0278850        -492.9355309         11.93692174    
HG        -690.9162035        -493.6765871         13.13733157    
CB        -692.4795558        -492.4868623         14.02310686    
HB        -693.3815953        -491.9817334         13.67236504    
HB        -691.7315416        -491.7590800         14.33998822    
CA        -692.8197418        -493.4752406         15.14306912    
HA        -691.9128643        -493.6568932         15.71822895    
C         -693.8873757        -492.9015694         16.08850665    
O         -693.5413249        -492.4048717         17.16324969    
N         -695.1691791        -493.0139438         15.71947960    
H         -695.3572936        -493.4068114         14.80725561    
CA        -696.3298114        -492.7286382         16.57194368    
HA        -696.0845544        -493.0135935         17.59483183    
CB        -696.6247489        -491.2144409         16.53037017    
HB        -695.7299230        -490.6724301         16.83950692    
HB        -696.8416308        -490.9347327         15.49811436    
CG        -697.8003295        -490.7578067         17.41682645    
HG        -698.7072074        -491.2847537         17.12103263    
CD        -697.5460743        -491.0079045         18.90523416    
HD        -696.6212475        -490.5203820         19.21442533    
HD        -698.3746028        -490.6110992         19.49210311    
HD        -697.4738024        -492.0759034         19.10188566    
CD        -698.0362286        -489.2592953         17.22331311    
HD        -698.8891421        -488.9390191         17.82229227    
HD        -697.1517958        -488.6971462         17.52514904    
HD        -698.2514312        -489.0543015         16.17423466    
C         -697.5496147        -493.5514269         16.10977081    
O         -697.8943268        -493.5367359         14.92312908    
N         -698.2154997        -494.2435313         17.04171252    
H         -697.8541936        -494.2210823         17.99033582    
CA        -699.4167124        -495.0577813         16.78951962    
HA        -700.2076968        -494.4264370         16.38573958    
HA        -699.1883264        -495.8255568         16.05079454    
C         -699.9561485        -495.7443785         18.04147408    
O         -700.5824974        -495.0528454         18.87445919    
OX        -699.7512910        -496.9712555         18.17497670    
   134
Energy=    -360.088740476607    
N         -698.1899012        -499.4769423         18.58958080    
H1        -698.6455817        -498.5974474         18.80375905    
H2        -698.3956216        -500.1420079         19.32066380    
H3        -698.5934803        -499.8241355         17.73231942    
CA        -696.7183659        -499.3062556         18.43022115    
HA        -696.3459181        -500.2575741         18.04384944    
CB        -696.3340418        -498.2501215         17.36051865    
HB        -696.7555709        -497.2776221         17.61388043    
HB        -695.2478857        -498.1401506         17.34731240    
SG        -696.8956055        -498.6656146         15.67782200    
C         -695.9969091        -499.1511153         19.78854787    
O         -695.3085313        -500.0860230         20.19267045    
N         -696.0990856        -498.0632236         20.56969906    
H         -695.6472348        -498.1663945         21.47032799    
CA        -696.8222124        -496.7942662         20.35615372    
HA        -697.4897952        -496.9143768         19.51276740    
CB        -697.7634276        -496.5088946         21.54639594    
HB        -698.3011910        -495.5839901         21.33286941    
HB        -698.5128628        -497.3019373         21.55074358    
CG        -697.2264746        -496.4020986         22.97364607    
CD        -698.1659985        -496.3728916         24.02551176    
HD        -699.2247510        -496.4329667         23.80117360    
CE        -697.7464030        -496.2631482         25.36588690    
HE        -698.4779457        -496.2419089         26.16257883    
CZ        -696.3704785        -496.1781928         25.66807614    
OH        -695.9519395        -496.0701765         26.95835593    
HH        -696.6954792        -496.0629073         27.57519148    
CE        -695.4251226        -496.2049759         24.62174305    
HE        -694.3714374        -496.1378881         24.85641605    
CD        -695.8513646        -496.3162633         23.28354434    
HD        -695.1057726        -496.3327374         22.50863039    
C         -695.9416264        -495.5871100         19.96363640    
O         -696.4829082        -494.5672332         19.53656278    
N         -694.6080317        -495.7108358         20.03833471    
H         -694.2322696        -496.6010213         20.33639473    
CA        -693.6229975        -494.6877294         19.62839955    
HA        -694.0859014        -494.0568835         18.87032490    
CB        -693.1990087        -493.7692321         20.80784912    
HB        -692.4982379        -493.0364760         20.40404099    
CG        -694.3957908        -492.9666634         21.34804611    
HG        -695.0749866        -493.6165730         21.89977099    
HG        -694.9337115        -492.5029133         20.52045079    
HG        -694.0503527        -492.1723562         22.00922667    
CG        -692.4610792        -494.5343663         21.93373394    
HG        -693.1350666        -495.2517048         22.39752931    
HG        -691.6267067        -495.0896613         21.50602038    
CD        -691.8849465        -493.6301889         23.03093840    
HD        -691.2890031        -494.2330521         23.71673671    
HD        -691.2473183        -492.8649889         22.58685122    
HD        -692.6877376        -493.1568222         23.59599030    
C         -692.3814268        -495.3214569         18.97369993    
O         -692.1109127        -496.5090689         19.16703545    
N         -691.5999225        -494.5016208         18.25812620    
H         -691.9403571        -493.5530430         18.15403423    
CA        -690.3158110        -494.7968043         17.58598012    
HA        -690.0099025        -493.8692182         17.09851379    
CB        -689.2147318        -495.1119167         18.61791063    
HB        -689.4795679        -496.0130345         19.17235573    
HB        -688.2865166        -495.3075922         18.07834530    
CG        -688.9662391        -493.9576909         19.60777474    
HG        -689.8767667        -493.7554753         20.17136808    
HG        -688.7100096        -493.0582158         19.04663213    
CD        -687.8431359        -494.2376482         20.61083142    
OE        -687.2108946        -495.2884633         20.63868946    
NE        -687.5454921        -493.2995687         21.48747053    
HE        -686.8055031        -493.4767158         22.15183951    
HE        -688.0468815        -492.4222024         21.48609497    
C         -690.3557267        -495.8459018         16.45169969    
O         -689.8478232        -495.5759959         15.36103309    
N         -690.9680933        -497.0134508         16.66600139    
H         -691.3750529        -497.1557559         17.58490747    
CA        -691.1460289        -498.0768361         15.67110846    
HA        -691.1174789        -497.6470018         14.66901876    
CB        -689.9500175        -499.0459051         15.78930414    
HB        -689.0207955        -498.4873503         15.67410074    
HB        -689.9462423        -499.5027212         16.77967850    
CG        -689.9571125        -500.1515470         14.74097463    
OD        -690.7323332        -500.1617960         13.79216150    
ND        -689.0745640        -501.1177791         14.86715475    
HD        -689.0613819        -501.8546924         14.17688301    
HD        -688.4257839        -501.1147458         15.64135812    
C         -692.5119957        -498.7881431         15.85866181    
O         -692.6221981        -499.7373690         16.63640413    
N         -693.5943893        -498.3737617         15.18979248    
H         -694.4266319        -498.9266080         15.32876303    
CA        -693.7265965        -497.2006193         14.31386781    
HA        -692.9450962        -497.2713491         13.55802027    
CB        -695.0752404        -497.2873812         13.57988793    
HB        -695.1582883        -498.2662613         13.10343501    
HB        -695.0657575        -496.5510871         12.77465553    
SG        -696.5823063        -496.9873935         14.55722568    
C         -693.5777347        -495.8504232         15.06422674    
O         -693.7817901        -495.8171187         16.28141640    
N         -693.2373798        -494.7336646         14.37963155    
CD        -692.9545930        -494.6455002         12.94943900    
HD        -693.8903292        -494.5282847         12.40088631    
HD        -692.4060314        -495.5105061         12.57806948    
CG        -692.0967844        -493.3956627         12.77015834    
HG        -692.2250508        -492.9543289         11.78129892    
HG        -691.0487338        -493.6380697         12.95371520    
CB        -692.6160305        -492.4805275         13.87404048    
HB        -693.5447219        -492.0091933         13.54658972    
HB        -691.8800120        -491.7248483         14.15122140    
CA        -692.8865792        -493.4572887         15.02285960    
HA        -691.9555812        -493.5990716         15.56949672    
C         -693.9379244        -492.8970896         15.99383398    
O         -693.5724923        -492.3678293         17.04654821    
N         -695.2265865        -493.0535698         15.66934343    
H         -695.4327255        -493.4733364         14.77311422    
CA        -696.3669525        -492.7719457         16.54905348    
HA        -696.0791066        -493.0076783         17.57317950    
CB        -696.7124094        -491.2707166         16.45736696    
HB        -695.8237120        -490.6890082         16.70636176    
HB        -696.9793007        -491.0419333         15.42426829    
CG        -697.8651292        -490.8123730         17.37230324    
HG        -698.7655898        -491.3795451         17.13760691    
CD        -697.5415152        -490.9894602         18.85778258    
HD        -696.6172914        -490.4666425         19.10522113    
HD        -698.3547055        -490.5877344         19.46253342    
HD        -697.4327469        -492.0455313         19.09685241    
CD        -698.1572664        -489.3316511         17.12570268    
HD        -698.9952208        -489.0119555         17.74574336    
HD        -697.2800808        -488.7299686         17.36627410    
HD        -698.4213236        -489.1792262         16.07882555    
C         -697.5709994        -493.6521642         16.15883383    
O         -697.9394407        -493.7099332         14.98058911    
N         -698.1975450        -494.3147092         17.13876649    
H         -697.8239518        -494.2309018         18.07882282    
CA        -699.3824427        -495.1684658         16.94330991    
HA        -700.1991035        -494.5709344         16.53905366    
HA        -699.1512855        -495.9522147         16.22220873    
C         -699.8774526        -495.8308348         18.22547841    
O         -700.4813822        -495.1255713         19.06326326    
OX        -699.6602462        -497.0536062         18.37546773    
   134
Energy=    -365.953451180997    
N         -698.1684084        -499.6277379         18.41176134    
H1        -698.6516510        -498.7789282         18.68112726    
H2        -698.3237139        -500.3367016         19.11341392    
H3        -698.5841571        -499.9473459         17.54958622    
CA        -696.7114881        -499.3860364         18.21623982    
HA        -696.3155947        -500.2891539         17.74649417    
CB        -696.4084313        -498.2351006         17.22348444    
HB        -696.8907078        -497.3135742         17.55143409    
HB        -695.3322550        -498.0530764         17.21423662    
SG        -696.9526316        -498.5736791         15.51829929    
C         -695.9401760        -499.2955427         19.55115175    
O         -695.1899563        -500.2201453         19.85663860    
N         -696.0535129        -498.2688891         20.40817885    
H         -695.5106258        -498.3826907         21.25501743    
CA        -696.8694489        -497.0415486         20.33340391    
HA        -697.6325590        -497.1588224         19.57304646    
CB        -697.6278881        -496.8586221         21.66078462    
HB        -698.3905974        -496.0926963         21.51129490    
HB        -698.1573750        -497.7838371         21.89394222    
CG        -696.7810434        -496.4663176         22.86172866    
CD        -696.7227459        -495.1176875         23.26650735    
HD        -697.2838461        -494.3656474         22.72464566    
CE        -695.9376217        -494.7395392         24.37334461    
HE        -695.8916487        -493.7019278         24.67509413    
CZ        -695.2083873        -495.7166732         25.08619908    
OH        -694.4439064        -495.3624583         26.15463220    
HH        -694.4849312        -494.4126205         26.32432979    
CE        -695.2817129        -497.0705854         24.69303956    
HE        -694.7325568        -497.8169325         25.25076179    
CD        -696.0722807        -497.4449392         23.58851633    
HD        -696.1412013        -498.4893535         23.30937706    
C         -696.0692334        -495.7805086         19.94209647    
O         -696.6623256        -494.8078375         19.47622169    
N         -694.7364001        -495.8163986         20.06784502    
H         -694.3267416        -496.6614401         20.44010835    
CA        -693.7878343        -494.7683800         19.64132487    
HA        -694.2461451        -494.2014478         18.83231108    
CB        -693.4532668        -493.7820685         20.79211883    
HB        -692.6412283        -493.1385369         20.45016707    
CG        -694.6413369        -492.8472243         21.06981072    
HG        -695.4613894        -493.3995989         21.52098891    
HG        -694.9845325        -492.3995409         20.13669965    
HG        -694.3419927        -492.0425931         21.74062435    
CG        -692.9586812        -494.5125837         22.06322768    
HG        -693.7620409        -495.1228493         22.47484428    
HG        -692.1374402        -495.1770848         21.79348580    
CD        -692.4490104        -493.5744414         23.16408568    
HD        -692.0292041        -494.1688660         23.97604071    
HD        -691.6731154        -492.9196794         22.76595569    
HD        -693.2669327        -492.9743070         23.56212240    
C         -692.4927879        -495.3742978         19.06928057    
O         -692.1988136        -496.5520363         19.28803646    
N         -691.7020449        -494.5422055         18.37868276    
H         -692.0599839        -493.6025725         18.25345721    
CA        -690.3951851        -494.8183424         17.74525128    
HA        -690.0802827        -493.8812635         17.28230970    
CB        -689.3229566        -495.1444831         18.80410087    
HB        -689.5799519        -496.0749038         19.31173585    
HB        -688.3717546        -495.2925425         18.29003417    
CG        -689.1419812        -494.0274684         19.84978477    
HG        -690.0713039        -493.8897993         20.40265855    
HG        -688.9122040        -493.0935436         19.33540639    
CD        -688.0284203        -494.3076056         20.86342403    
OE        -687.3599468        -495.3361751         20.86331137    
NE        -687.7805776        -493.3951084         21.78162004    
HE        -687.0473060        -493.5726180         22.45331416    
HE        -688.3129024        -492.5364531         21.80441804    
C         -690.3986087        -495.8497555         16.59489596    
O         -689.8424910        -495.5691647         15.53073544    
N         -691.0361980        -497.0116290         16.76439226    
H         -691.4775980        -497.1664376         17.66520640    
CA        -691.1878556        -498.0529247         15.74141729    
HA        -691.1168530        -497.6027689         14.75033621    
CB        -690.0067803        -499.0370402         15.88434449    
HB        -689.0683079        -498.4861101         15.81763623    
HB        -690.0460554        -499.5151857         16.86382266    
CG        -689.9834515        -500.1196274         14.81241840    
OD        -690.7204770        -500.1009149         13.83377552    
ND        -689.1163033        -501.0978959         14.95192164    
HD        -689.0831333        -501.8197757         14.24660063    
HD        -688.4986825        -501.1186688         15.75093689    
C         -692.5664552        -498.7549739         15.85839852    
O         -692.7162347        -499.7194520         16.61015206    
N         -693.6172652        -498.3183480         15.15404578    
H         -694.4559362        -498.8719903         15.24139914    
CA        -693.7111343        -497.1183609         14.30988068    
HA        -692.9029859        -497.1694237         13.58068954    
CB        -695.0345403        -497.1741482         13.52770299    
HB        -695.1137925        -498.1425208         13.02959548    
HB        -694.9882905        -496.4232984         12.73745076    
SG        -696.5697523        -496.8708355         14.45959350    
C         -693.5846021        -495.7928438         15.10659560    
O         -693.8157573        -495.7992989         16.31939192    
N         -693.2359765        -494.6531461         14.46579806    
CD        -692.9143373        -494.5190102         13.04758613    
HD        -693.8354868        -494.3951566         12.47631329    
HD        -692.3458030        -495.3671084         12.66707265    
CG        -692.0669338        -493.2547795         12.93029613    
HG        -692.1722489        -492.7854457         11.95167158    
HG        -691.0216952        -493.4907145         13.13691599    
CB        -692.6289316        -492.3791924         14.04544294    
HB        -693.5542093        -491.9097107         13.70588672    
HB        -691.9108776        -491.6232638         14.36571853    
CA        -692.9187635        -493.3933369         15.15649820    
HA        -692.0011117        -493.5418423         15.72403379    
C         -694.0038556        -492.8765111         16.11475616    
O         -693.6724390        -492.3768793         17.19274882    
N         -695.2820379        -493.0401904         15.75241614    
H         -695.4590822        -493.4310017         14.83709858    
CA        -696.4481969        -492.8145199         16.61514371    
HA        -696.1840440        -493.0996090         17.63327588    
CB        -696.8084855        -491.3141309         16.59215202    
HB        -695.9358183        -490.7372972         16.90161710    
HB        -697.0442233        -491.0329651         15.56443630    
CG        -697.9966483        -490.9183338         17.49099686    
HG        -698.8819172        -491.4807827         17.19511712    
CD        -697.7217525        -491.1732289         18.97491740    
HD        -696.8167335        -490.6495718         19.28363136    
HD        -698.5626242        -490.8189297         19.57135222    
HD        -697.6021576        -492.2391650         19.15929175    
CD        -698.2983182        -489.4294255         17.31555668    
HD        -699.1601868        -489.1527995         17.92340078    
HD        -697.4369521        -488.8328451         17.61800959    
HD        -698.5292694        -489.2226370         16.27018556    
C         -697.6344120        -493.6842460         16.15149220    
O         -697.9873650        -493.6716959         14.96725131    
N         -698.2635541        -494.4144757         17.07985883    
H         -697.8971865        -494.3866469         18.02639499    
CA        -699.4301482        -495.2771594         16.82619863    
HA        -700.2503371        -494.6763259         16.43430665    
HA        -699.1737684        -496.0263870         16.07767946    
C         -699.9310404        -495.9998049         18.07387271    
O         -700.5810702        -495.3449549         18.91828436    
OX        -699.6725009        -497.2180306         18.19262356    
