   134
Energy=    -365.974807797004    
N         -698.3586216        -499.4353522         18.43456763    
H1        -698.8052423        -498.5627661         18.69085743    
H2        -698.5494504        -500.1282720         19.14344818    
H3        -698.7830500        -499.7464905         17.57352386    
CA        -696.8912643        -499.2609021         18.24563649    
HA        -696.5331294        -500.1862594         17.78905504    
CB        -696.5314720        -498.1365242         17.24145782    
HB        -696.9742867        -497.1906490         17.55544953    
HB        -695.4482377        -498.0025224         17.23706062    
SG        -697.0799965        -498.4711096         15.53687057    
C         -696.1246074        -499.1887388         19.58433468    
O         -695.4180502        -500.1419952         19.90545990    
N         -696.1972750        -498.1478647         20.42852473    
H         -695.6650141        -498.2754700         21.28014215    
CA        -696.9574949        -496.8865715         20.33420068    
HA        -697.7204996        -496.9788919         19.57030851    
CB        -697.7149744        -496.6546465         21.65447276    
HB        -698.4408892        -495.8563098         21.49190831    
HB        -698.2875804        -497.5521368         21.89399481    
CG        -696.8580886        -496.2884749         22.85649195    
CD        -696.2011109        -497.2908537         23.59962198    
HD        -696.3191745        -498.3339714         23.33207121    
CE        -695.3986875        -496.9429040         24.70466102    
HE        -694.8921352        -497.7139252         25.26967680    
CZ        -695.2623717        -495.5877832         25.08045299    
OH        -694.4891698        -495.2425260         26.14552747    
HH        -694.0863327        -496.0161272         26.56044077    
CE        -695.9402789        -494.5875087         24.35145477    
HE        -695.8398783        -493.5521796         24.64655683    
CD        -696.7375898        -494.9393791         23.24511486    
HD        -697.2586492        -494.1675525         22.69135707    
C         -696.0997147        -495.6669409         19.93347178    
O         -696.6462988        -494.6745636         19.45249820    
N         -694.7705079        -495.7603361         20.06806971    
H         -694.4009330        -496.6181965         20.45273984    
CA        -693.7738316        -494.7606068         19.63520143    
HA        -694.2017398        -494.1839629         18.81646248    
CB        -693.4025683        -493.7758965         20.77612774    
HB        -692.5608673        -493.1731545         20.43156301    
CG        -694.5494930        -492.7858338         21.03470091    
HG        -695.3958411        -493.2956057         21.48734487    
HG        -694.8669599        -492.3350188         20.09403663    
HG        -694.2186087        -491.9870450         21.69762608    
CG        -692.9477588        -494.5118566         22.05892231    
HG        -693.7786085        -495.0836070         22.47116430    
HG        -692.1530129        -495.2128673         21.80256967    
CD        -692.4074402        -493.5835287         23.15346890    
HD        -692.0176756        -494.1857859         23.97455483    
HD        -691.6029804        -492.9650670         22.75403072    
HD        -693.2029450        -492.9466469         23.53971385    
C         -692.5035360        -495.4301959         19.07890157    
O         -692.2633271        -496.6170026         19.31371134    
N         -691.6726256        -494.6424329         18.38349336    
H         -691.9878618        -493.6895010         18.24468601    
CA        -690.3755170        -494.9838108         17.76193737    
HA        -690.0166919        -494.0673239         17.28982325    
CB        -689.3251237        -495.3439448         18.83160012    
HB        -689.6261345        -496.2557171         19.34879048    
HB        -688.3783703        -495.5403079         18.32556577    
CG        -689.1010579        -494.2231403         19.86481225    
HG        -690.0266706        -494.0375578         20.40984536    
HG        -688.8269535        -493.3067775         19.34065146    
CD        -688.0071715        -494.5397162         20.88909106    
OE        -687.3849841        -495.5967958         20.90584845    
NE        -687.7246797        -493.6277768         21.79778591    
HE        -687.0040738        -493.8292128         22.47640129    
HE        -688.2185632        -492.7461956         21.80668410    
C         -690.4177181        -496.0281243         16.62405557    
O         -689.8430598        -495.7856293         15.56038279    
N         -691.1074815        -497.1583243         16.80315309    
H         -691.5608672        -497.2823178         17.70278120    
CA        -691.2991291        -498.2042516         15.79167462    
HA        -691.2021826        -497.7698026         14.79579291    
CB        -690.1638913        -499.2380384         15.95407637    
HB        -689.2014519        -498.7301843         15.88700388    
HB        -690.2303263        -499.7020066         16.93889224    
CG        -690.1822556        -500.3335653         14.89528003    
OD        -690.9118350        -500.2940980         13.91168762    
ND        -689.3602849        -501.3475650         15.05207744    
HD        -689.3549841        -502.0787336         14.35561976    
HD        -688.7489934        -501.3859780         15.85529512    
C         -692.7082798        -498.8429060         15.90792013    
O         -692.9053559        -499.7905709         16.67007428    
N         -693.7343549        -498.3686373         15.19154111    
H         -694.5973280        -498.8834040         15.27992598    
CA        -693.7696803        -497.1759720         14.33264525    
HA        -692.9602153        -497.2716686         13.60942932    
CB        -695.0895225        -497.1824238         13.54252063    
HB        -695.2087874        -498.1523023         13.05543846    
HB        -695.0051524        -496.4440327         12.74372635    
SG        -696.6152948        -496.7998994         14.46066434    
C         -693.5891536        -495.8478356         15.11445112    
O         -693.8275998        -495.8293786         16.32571124    
N         -693.1864314        -494.7325480         14.46251557    
CD        -692.8507297        -494.6299563         13.04492969    
HD        -693.7620611        -494.4723183         12.46628141    
HD        -692.3181539        -495.5069587         12.67815602    
CG        -691.9473634        -493.4060294         12.91819369    
HG        -692.0259325        -492.9443541         11.93343266    
HG        -690.9148723        -493.6855356         13.13434017    
CB        -692.4765522        -492.4929826         14.01926210    
HB        -693.3780562        -491.9871101         13.66821549    
HB        -691.7275705        -491.7657916         14.33521428    
CA        -692.8176799        -493.4797886         15.14032388    
HA        -691.9108874        -493.6619601         15.71545351    
C         -693.8843821        -492.9038347         16.08542526    
O         -693.5374639        -492.4064555         17.15957333    
N         -695.1664109        -493.0150163         15.71682059    
H         -695.3552263        -493.4085923         14.80504688    
CA        -696.3264875        -492.7274092         16.56926760    
HA        -696.0813349        -493.0116123         17.59239000    
CB        -696.6195767        -491.2128946         16.52620570    
HB        -695.7240124        -490.6716649         16.83457149    
HB        -696.8363621        -490.9339829         15.49371416    
CG        -697.7943841        -490.7539054         17.41247093    
HG        -698.7019789        -491.2800421         17.11743466    
CD        -697.5400811        -491.0027843         18.90107478    
HD        -696.6145822        -490.5160810         19.20954466    
HD        -698.3679813        -490.6043575         19.48773174    
HD        -697.4690748        -492.0706683         19.09880787    
CD        -698.0284888        -489.2553052         17.21747232    
HD        -698.8808660        -488.9333660         17.81632330    
HD        -697.1432947        -488.6939326         17.51852109    
HD        -698.2436886        -489.0511258         16.16823451    
C         -697.5474100        -493.5491759         16.10823291    
O         -697.8923871        -493.5352848         14.92165855    
N         -698.2139210        -494.2395022         17.04104549    
H         -697.8523614        -494.2165189         17.98955939    
CA        -699.4161910        -495.0525383         16.78997669    
HA        -700.2064973        -494.4206409         16.38573405    
HA        -699.1889224        -495.8213536         16.05198889    
C         -699.9561696        -495.7371839         18.04276578    
O         -700.5814727        -495.0440260         18.87518603    
OX        -699.7527834        -496.9641727         18.17748418    
   134
Energy=    -360.075848447173    
N         -698.1860000        -499.4790000         18.59100000    
H1        -698.6420000        -498.6000000         18.80500000    
H2        -698.3910000        -500.1450000         19.32200000    
H3        -698.5900000        -499.8270000         17.73400000    
CA        -696.7150000        -499.3080000         18.43100000    
HA        -696.3420000        -500.2590000         18.04400000    
CB        -696.3320000        -498.2510000         17.36100000    
HB        -696.7540000        -497.2790000         17.61500000    
HB        -695.2460000        -498.1400000         17.34700000    
SG        -696.8940000        -498.6670000         15.67900000    
C         -695.9930000        -499.1520000         19.78900000    
O         -695.3040000        -500.0860000         20.19200000    
N         -696.0950000        -498.0640000         20.57000000    
H         -695.6430000        -498.1670000         21.47000000    
CA        -696.8190000        -496.7960000         20.35700000    
HA        -697.4870000        -496.9160000         19.51400000    
CB        -697.7600000        -496.5110000         21.54800000    
HB        -698.2990000        -495.5870000         21.33500000    
HB        -698.5090000        -497.3050000         21.55300000    
CG        -697.2230000        -496.4040000         22.97500000    
CD        -698.1620000        -496.3760000         24.02700000    
HD        -699.2200000        -496.4360000         23.80300000    
CE        -697.7410000        -496.2660000         25.36700000    
HE        -698.4720000        -496.2450000         26.16400000    
CZ        -696.3650000        -496.1800000         25.66900000    
OH        -695.9460000        -496.0710000         26.95900000    
HH        -696.6890000        -496.0650000         27.57600000    
CE        -695.4200000        -496.2060000         24.62200000    
HE        -694.3670000        -496.1380000         24.85600000    
CD        -695.8470000        -496.3170000         23.28400000    
HD        -695.1020000        -496.3330000         22.50900000    
C         -695.9400000        -495.5880000         19.96400000    
O         -696.4820000        -494.5680000         19.53700000    
N         -694.6060000        -495.7110000         20.03800000    
H         -694.2300000        -496.6010000         20.33600000    
CA        -693.6220000        -494.6870000         19.62800000    
HA        -694.0860000        -494.0560000         18.87000000    
CB        -693.1980000        -493.7680000         20.80700000    
HB        -692.4980000        -493.0350000         20.40300000    
CG        -694.3950000        -492.9660000         21.34800000    
HG        -695.0740000        -493.6170000         21.90000000    
HG        -694.9340000        -492.5030000         20.52000000    
HG        -694.0500000        -492.1720000         22.00900000    
CG        -692.4590000        -494.5330000         21.93200000    
HG        -693.1320000        -495.2510000         22.39600000    
HG        -691.6250000        -495.0870000         21.50400000    
CD        -691.8830000        -493.6280000         23.02900000    
HD        -691.2860000        -494.2310000         23.71500000    
HD        -691.2460000        -492.8630000         22.58500000    
HD        -692.6860000        -493.1550000         23.59500000    
C         -692.3810000        -495.3200000         18.97200000    
O         -692.1090000        -496.5070000         19.16500000    
N         -691.6000000        -494.4990000         18.25600000    
H         -691.9410000        -493.5510000         18.15200000    
CA        -690.3160000        -494.7930000         17.58300000    
HA        -690.0110000        -493.8660000         17.09600000    
CB        -689.2140000        -495.1080000         18.61500000    
HB        -689.4780000        -496.0090000         19.16900000    
HB        -688.2860000        -495.3030000         18.07400000    
CG        -688.9660000        -493.9530000         19.60400000    
HG        -689.8760000        -493.7520000         20.16800000    
HG        -688.7110000        -493.0540000         19.04300000    
CD        -687.8420000        -494.2330000         20.60700000    
OE        -687.2090000        -495.2830000         20.63400000    
NE        -687.5450000        -493.2940000         21.48300000    
HE        -686.8040000        -493.4710000         22.14700000    
HE        -688.0470000        -492.4170000         21.48200000    
C         -690.3560000        -495.8420000         16.44900000    
O         -689.8490000        -495.5720000         15.35800000    
N         -690.9670000        -497.0100000         16.66400000    
H         -691.3740000        -497.1530000         17.58300000    
CA        -691.1450000        -498.0740000         15.66900000    
HA        -691.1170000        -497.6440000         14.66700000    
CB        -689.9480000        -499.0420000         15.78600000    
HB        -689.0190000        -498.4830000         15.67000000    
HB        -689.9440000        -499.4990000         16.77600000    
CG        -689.9550000        -500.1480000         14.73800000    
OD        -690.7310000        -500.1580000         13.78900000    
ND        -689.0720000        -501.1130000         14.86300000    
HD        -689.0580000        -501.8500000         14.17300000    
HD        -688.4230000        -501.1100000         15.63700000    
C         -692.5100000        -498.7860000         15.85700000    
O         -692.6190000        -499.7360000         16.63500000    
N         -693.5930000        -498.3730000         15.18900000    
H         -694.4250000        -498.9260000         15.32800000    
CA        -693.7270000        -497.1990000         14.31300000    
HA        -692.9460000        -497.2700000         13.55700000    
CB        -695.0760000        -497.2870000         13.58000000    
HB        -695.1590000        -498.2660000         13.10300000    
HB        -695.0670000        -496.5510000         12.77500000    
SG        -696.5830000        -496.9880000         14.55800000    
C         -693.5790000        -495.8490000         15.06300000    
O         -693.7820000        -495.8160000         16.28100000    
N         -693.2400000        -494.7320000         14.37900000    
CD        -692.9580000        -494.6440000         12.94800000    
HD        -693.8940000        -494.5270000         12.40000000    
HD        -692.4090000        -495.5080000         12.57700000    
CG        -692.1010000        -493.3930000         12.76900000    
HG        -692.2300000        -492.9520000         11.78000000    
HG        -691.0520000        -493.6350000         12.95200000    
CB        -692.6200000        -492.4790000         13.87300000    
HB        -693.5490000        -492.0080000         13.54600000    
HB        -691.8840000        -491.7220000         14.15000000    
CA        -692.8890000        -493.4560000         15.02200000    
HA        -691.9580000        -493.5970000         15.56800000    
C         -693.9400000        -492.8960000         15.99300000    
O         -693.5750000        -492.3670000         17.04600000    
N         -695.2290000        -493.0540000         15.67000000    
H         -695.4360000        -493.4730000         14.77300000    
CA        -696.3690000        -492.7730000         16.55000000    
HA        -696.0810000        -493.0080000         17.57400000    
CB        -696.7160000        -491.2720000         16.45900000    
HB        -695.8270000        -490.6900000         16.70700000    
HB        -696.9840000        -491.0430000         15.42600000    
CG        -697.8680000        -490.8140000         17.37400000    
HG        -698.7690000        -491.3820000         17.14000000    
CD        -697.5440000        -490.9910000         18.85900000    
HD        -696.6200000        -490.4680000         19.10600000    
HD        -698.3570000        -490.5900000         19.46500000    
HD        -697.4340000        -492.0470000         19.09800000    
CD        -698.1620000        -489.3340000         17.12800000    
HD        -699.0000000        -489.0150000         17.74800000    
HD        -697.2850000        -488.7320000         17.36800000    
HD        -698.4270000        -489.1820000         16.08100000    
C         -697.5730000        -493.6540000         16.16000000    
O         -697.9420000        -493.7120000         14.98200000    
N         -698.1980000        -494.3170000         17.14100000    
H         -697.8240000        -494.2330000         18.08000000    
CA        -699.3830000        -495.1720000         16.94600000    
HA        -700.2000000        -494.5750000         16.54200000    
HA        -699.1510000        -495.9550000         16.22400000    
C         -699.8770000        -495.8340000         18.22800000    
O         -700.4810000        -495.1300000         19.06600000    
OX        -699.6580000        -497.0570000         18.37800000    
   134
Energy=    -365.953451183713    
N         -698.1630601        -499.6320955         18.39286880    
H1        -698.6475250        -498.7847750         18.66471633    
H2        -698.3181977        -500.3436554         19.09192566    
H3        -698.5776471        -499.9491999         17.52921109    
CA        -696.7062389        -499.3880520         18.19953083    
HA        -696.3088762        -500.2890874         17.72703559    
CB        -696.4035899        -498.2333474         17.21103665    
HB        -696.8872266        -497.3135125         17.54172029    
HB        -695.3276154        -498.0500596         17.20341304    
SG        -696.9458300        -498.5666573         15.50418985    
C         -695.9362609        -499.3012871         19.53546013    
O         -695.1852623        -500.2260801         19.83844624    
N         -696.0515653        -498.2777303         20.39592202    
H         -695.5093268        -498.3938342         21.24286371    
CA        -696.8688408        -497.0510739         20.32463169    
HA        -697.6311168        -497.1665947         19.56316995    
CB        -697.6287087        -496.8736009         21.65193563    
HB        -698.3921541        -496.1080317         21.50438967    
HB        -698.1573531        -497.8002187         21.88140505    
CG        -696.7834172        -496.4844872         22.85501003    
CD        -696.7270300        -495.1371990         23.26450027    
HD        -697.2884887        -494.3839290         22.72472233    
CE        -695.9433566        -494.7619864         24.37336302    
HE        -695.8988447        -493.7253727         24.67873877    
CZ        -695.2136651        -495.7407489         25.08351053    
OH        -694.4505728        -495.3893607         26.15386793    
HH        -694.4928370        -494.4401625         26.32680936    
CE        -695.2850851        -497.0933765         24.68560722    
HE        -694.7355924        -497.8410221         25.24125484    
CD        -696.0742085        -497.4648087         23.57906660    
HD        -696.1416814        -498.5083297         23.29625650    
C         -696.0697139        -495.7877750         19.93841913    
O         -696.6634934        -494.8141818         19.47535454    
N         -694.7369566        -495.8225722         20.06527651    
H         -694.3266709        -496.6684237         20.43500071    
CA        -693.7892026        -494.7720024         19.64325131    
HA        -694.2474191        -494.2028076         18.83577425    
CB        -693.4568279        -493.7892847         20.79774924    
HB        -692.6452170        -493.1436452         20.45876883    
CG        -694.6462277        -492.8567687         21.07756866    
HG        -695.4660580        -493.4116380         21.52608157    
HG        -694.9890808        -492.4062617         20.14569148    
HG        -694.3484262        -492.0541143         21.75143024    
CG        -692.9625692        -494.5236138         22.06678591    
HG        -693.7656034        -495.1362184         22.47555330    
HG        -692.1403161        -495.1862365         21.79551090    
CD        -692.4549905        -493.5886913         23.17134342    
HD        -692.0352447        -494.1854316         23.98162929    
HD        -691.6794856        -492.9316677         22.77619015    
HD        -693.2739689        -492.9908746         23.57069423    
C         -692.4929350        -495.3744590         19.07031832    
O         -692.1978106        -496.5526083         19.28528083    
N         -691.7025117        -494.5390832         18.38332809    
H         -692.0614135        -493.5994338         18.26101506    
CA        -690.3947526        -494.8115357         17.75015717    
HA        -690.0804998        -493.8725045         17.29074342    
CB        -689.3231266        -495.1401011         18.80886701    
HB        -689.5795206        -496.0725625         19.31305007    
HB        -688.3712816        -495.2852951         18.29517325    
CG        -689.1443990        -494.0264960         19.85856640    
HG        -690.0743883        -493.8918016         20.41105160    
HG        -688.9152217        -493.0905383         19.34762690    
CD        -688.0314516        -494.3088538         20.87226324    
OE        -687.3617974        -495.3366504         20.86922096    
NE        -687.7855035        -493.3992472         21.79383063    
HE        -687.0526478        -493.5782336         22.46558674    
HE        -688.3188351        -492.5412861         21.81909814    
C         -690.3959323        -495.8389755         16.59624706    
O         -689.8391554        -495.5540775         15.53357666    
N         -691.0323452        -497.0021553         16.76114232    
H         -691.4743974        -497.1605771         17.66100796    
CA        -691.1818666        -498.0400859         15.73443996    
HA        -691.1104653        -497.5864311         14.74498432    
CB        -689.9997980        -499.0233401         15.87506492    
HB        -689.0618956        -498.4711124         15.81112750    
HB        -690.0394296        -499.5049079         16.85285067    
CG        -689.9742416        -500.1021940         14.79943210    
OD        -690.7103814        -500.0809423         13.82017462    
ND        -689.1061079        -501.0799513         14.93636572    
HD        -689.0714619        -501.7993547         14.22858974    
HD        -688.4892046        -501.1027797         15.73587905    
C         -692.5597687        -498.7441085         15.84772040    
O         -692.7091371        -499.7113467         16.59600160    
N         -693.6104279        -498.3062540         15.14390574    
H         -694.4485440        -498.8611527         15.22857040    
CA        -693.7048941        -497.1034667         14.30380228    
HA        -692.8960160        -497.1510868         13.57518751    
CB        -695.0275141        -497.1580649         13.52021253    
HB        -695.1051965        -498.1248008         13.01869018    
HB        -694.9813977        -496.4044366         12.73260174    
SG        -696.5639308        -496.8597302         14.45172441    
C         -693.5806159        -495.7805652         15.10520563    
O         -693.8128815        -495.7914731         16.31775786    
N         -693.2327066        -494.6382633         14.46866987    
CD        -692.9099138        -494.4988625         13.05122799    
HD        -693.8306775        -494.3740901         12.47953329    
HD        -692.3400567        -495.3449909         12.66831541    
CG        -692.0638527        -493.2332661         12.93908840    
HG        -692.1688034        -492.7606760         11.96199297    
HG        -691.0185352        -493.4687179         13.14586053    
CB        -692.6278826        -492.3621788         14.05673048    
HB        -693.5533846        -491.8925860         13.71794037    
HB        -691.9109917        -491.6065400         14.38027883    
CA        -692.9175756        -493.3804851         15.16400885    
HA        -692.0002778        -493.5299002         15.73187771    
C         -694.0041426        -492.8682132         16.12304054    
O         -693.6742930        -492.3719290         17.20305821    
N         -695.2818018        -493.0321021         15.75895461    
H         -695.4575538        -493.4199516         14.84212945    
CA        -696.4490136        -492.8107487         16.62137689    
HA        -696.1854724        -493.0990520         17.63876223    
CB        -696.8110023        -491.3107024         16.60323520    
HB        -695.9392836        -490.7339436         16.91550031    
HB        -697.0461137        -491.0262565         15.57627890    
CG        -698.0004478        -490.9193737         17.50234006    
HG        -698.8847974        -491.4818090         17.20369791    
CD        -697.7266303        -491.1790815         18.98562530    
HD        -696.8224979        -490.6554597         19.29698582    
HD        -698.5684582        -490.8278078         19.58250067    
HD        -697.6059831        -492.2455109         19.16642632    
CD        -698.3036632        -489.4302140         17.33176580    
HD        -699.1664108        -489.1566770         17.93976101    
HD        -697.4432623        -488.8336977         17.63707882    
HD        -698.5338841        -489.2200775         16.28690135    
C         -697.6338020        -493.6802241         16.15362546    
O         -697.9856778        -493.6639848         14.96910890    
N         -698.2629607        -494.4143779         17.07888075    
H         -697.8974976        -494.3894017         18.02584602    
CA        -699.4283302        -495.2775138         16.82116199    
HA        -700.2488458        -494.6762683         16.43058809    
HA        -699.1704012        -496.0238573         16.07029735    
C         -699.9295438        -496.0050377         18.06586838    
O         -700.5811076        -495.3538539         18.91193130    
OX        -699.6697119        -497.2233686         18.18065361    
