    12
Energy=    -193.671270772621    
O         -1.242990335        0.6517261155        -1.634077263    
O         -1.141248616        -1.736541447       -0.1323887630    
O         -1.530892333        0.7522178497         1.131890790    
O          1.399380867        -1.909765864        0.7763138659    
O          1.135214493        0.7909072473         1.242672132    
O          1.380535925         1.451456099        -1.384410763    
O         -1.097436880       -0.5883263516        0.8538474535    
O         0.5348872314        -2.286093181        -1.992480390    
O        -0.6722853050E-01    0.7588250890         1.354678565    
O          1.671230685        0.3672822460        -1.313559164    
O          2.549550745        0.1733278599        0.5389310168    
O          1.849833598         1.612547957        -1.081225237    
    12
Energy=    -193.670704110580    
O         -1.245503984        0.6529660321        -1.634679864    
O         -1.139781526        -1.735491727       -0.1335010676    
O         -1.529719828        0.7523588429         1.130886093    
O          1.399103662        -1.909783728        0.7794756699    
O          1.136019627        0.7915408217         1.243389413    
O          1.379882049         1.448409759        -1.385570244    
O         -1.096438355       -0.5873825433        0.8547312374    
O         0.5344720212        -2.284995326        -1.990707002    
O        -0.6614973327E-01    0.7576344113         1.355824768    
O          1.677249723        0.3725487211        -1.310581087    
O          2.547648921        0.1735063476        0.5380191776    
O          1.852462949         1.612809164        -1.081603469    
    12
Energy=    -193.669492785113    
O         -1.247007961        0.6543215845        -1.634940127    
O         -1.137717508        -1.735046220       -0.1355542901    
O         -1.530159389        0.7517219749         1.132133606    
O          1.400185555        -1.910422971        0.7811051330    
O          1.135980441        0.7923993714         1.242715657    
O          1.378718862         1.447026261        -1.385459978    
O         -1.096427147       -0.5870295061        0.8525712171    
O         0.5357320278        -2.283282472        -1.992631544    
O        -0.6506640020E-01    0.7570618681         1.356678587    
O          1.681063621        0.3769219663        -1.308458498    
O          2.547618395        0.1751334951        0.5364581428    
O          1.851174366         1.600395991        -1.086106750    
    12
Energy=    -193.668162500510    
O         -1.246069341        0.6551443853        -1.633819450    
O         -1.137562333        -1.735737311       -0.1363877861    
O         -1.530164430        0.7519807540         1.132359263    
O          1.400101311        -1.910833283        0.7831166986    
O          1.135802349        0.7922958992         1.242217567    
O          1.377892445         1.447149556        -1.387486293    
O         -1.096502007       -0.5875701886        0.8518613966    
O         0.5359746546        -2.282859510        -1.993730691    
O        -0.6448667227E-01    0.7575311408         1.357264789    
O          1.681755588        0.3774471203        -1.307819527    
O          2.547616547        0.1755591663        0.5363220454    
O          1.851758436         1.599974021        -1.086283242    
    12
Energy=    -193.666697406704    
O         -1.246277879        0.6575512753        -1.630574470    
O         -1.137273487        -1.735779179       -0.1374398644    
O         -1.533421523        0.7486664053         1.135682642    
O          1.400260202        -1.907337373        0.7830682794    
O          1.134272645        0.7958843317         1.239667207    
O          1.382440042         1.441014540        -1.390403795    
O         -1.094540524       -0.5881000546        0.8471358117    
O         0.5394766228        -2.277839581        -1.998602073    
O        -0.6198443782E-01    0.7586153192         1.360433429    
O          1.683611612        0.3823636232        -1.304212932    
O          2.544184371        0.1757903850        0.5391764528    
O          1.852297146         1.591154601        -1.094594281    
    12
Energy=    -193.664724201391    
O         -1.245387423        0.6586914595        -1.628218701    
O         -1.137316510        -1.736351315       -0.1382326762    
O         -1.534394939        0.7473139370         1.137594652    
O          1.399404399        -1.905873427        0.7839358382    
O          1.133487167        0.7976739567         1.238113389    
O          1.384207306         1.438545389        -1.393192502    
O         -1.094040073       -0.5883041246        0.8455752711    
O         0.5411333464        -2.275536704        -2.000355747    
O        -0.6136833280E-01    0.7590747158         1.362346782    
O          1.685227633        0.3832409809        -1.302910517    
O          2.542778316        0.1751084426        0.5415237368    
O          1.853198330         1.591110738        -1.098017296    
    12
Energy=    -193.660486207117    
O         -1.245169057        0.6598458927        -1.625421428    
O         -1.137458392        -1.736207923       -0.1398770927    
O         -1.534837129        0.7451560709         1.140792628    
O          1.397944215        -1.903807458        0.7841769273    
O          1.131669747        0.7999793461         1.236404319    
O          1.387850617         1.435034071        -1.396075354    
O         -1.093819903       -0.5872989603        0.8443761605    
O         0.5438017799        -2.272878796        -2.001883890    
O        -0.6123896860E-01    0.7598614331         1.365611293    
O          1.687356350        0.3839945754        -1.301258442    
O          2.539751024        0.1736215199        0.5453341074    
O          1.853345694         1.592532307        -1.103482191    
    12
Energy=    -193.654756882096    
O         -1.244906497        0.6604075712        -1.625530339    
O         -1.137704890        -1.735526408       -0.1405332678    
O         -1.536633507        0.7440978424         1.141439143    
O          1.395861639        -1.905022776        0.7877151334    
O          1.134216257        0.7999340438         1.236038422    
O          1.389166998         1.436109726        -1.399129092    
O         -1.092829600       -0.5863428381        0.8458107862    
O         0.5443725155        -2.273596746        -2.002696323    
O        -0.5986060035E-01    0.7619357500         1.365838387    
O          1.688267785        0.3817023955        -1.299947432    
O          2.537983018        0.1726655220        0.5467939149    
O          1.852513841         1.602156948        -1.103073085    
    12
Energy=    -193.639297607156    
O         -1.249594167        0.6643179015        -1.622085987    
O         -1.136071991        -1.733861371       -0.1447472997    
O         -1.539752139        0.7416005502         1.145574049    
O          1.404703987        -1.891577501        0.7675822482    
O          1.127526385        0.8058603604         1.245876513    
O          1.393187925         1.413660061        -1.392199524    
O         -1.092642155       -0.5865669475        0.8381917350    
O         0.5481100015        -2.267763792        -2.001684979    
O        -0.5967774560E-01    0.7591470788         1.367538424    
O          1.685176062        0.3985956220        -1.304288013    
O          2.544115227        0.1752427993        0.5518200600    
O          1.840190753         1.550087160        -1.115193075    
    12
Energy=    -193.627947972869    
O         -1.246457453        0.6652134354        -1.623668551    
O         -1.136248078        -1.734820470       -0.1437440034    
O         -1.529654205        0.7436949843         1.144463780    
O          1.387202764        -1.909042398        0.8016161258    
O          1.136011590        0.7958915923         1.227424048    
O          1.389145382         1.439062856        -1.406091400    
O         -1.089663410       -0.5908719365        0.8485555265    
O         0.5465425341        -2.278568091        -2.004502186    
O        -0.5559897066E-01    0.7657180942         1.362965624    
O          1.689689690        0.3760928258        -1.297129331    
O          2.538354773        0.1727770527        0.5535911035    
O          1.841738002         1.626995603        -1.097879967    
    12
Energy=    -193.526599498088    
O         -1.244353958        0.6719157882        -1.617714549    
O         -1.129364454        -1.733616344       -0.1426666990    
O         -1.537117766        0.7400045574         1.148806490    
O          1.398486493        -1.886306168        0.7615396042    
O          1.127931367        0.7957915366         1.237260731    
O          1.384418318         1.412210630        -1.387225578    
O         -1.090730132       -0.5918776938        0.8329741738    
O         0.5529369503        -2.266865806        -2.002152601    
O        -0.5634248641E-01    0.7604812259         1.367366626    
O          1.683673251        0.4057903344        -1.300546465    
O          2.534205580        0.1796610030        0.5571059111    
O          1.826571313         1.526036099        -1.125618392    
    12
Energy=    -193.487118900244    
O         -1.242597329        0.6731997362        -1.616639014    
O         -1.129074888        -1.733288584       -0.1421339561    
O         -1.536182212        0.7392976293         1.149193559    
O          1.399796438        -1.884555522        0.7576149114    
O          1.126034757        0.7952050340         1.236657285    
O          1.382023233         1.410141707        -1.384692785    
O         -1.090956273       -0.5924195968        0.8312406485    
O         0.5539144797        -2.265641324        -2.001934264    
O        -0.5642867721E-01    0.7597767740         1.367744775    
O          1.683152656        0.4087046828        -1.300379853    
O          2.532159342        0.1802284773        0.5575109514    
O          1.824767429         1.515449198        -1.128946137    
    12
Energy=    -193.474212584544    
O         -1.250419547        0.6744817175        -1.612923220    
O         -1.125184797        -1.731892102       -0.1453527922    
O         -1.550725317        0.7360985826         1.154053552    
O          1.424615687        -1.852592894        0.7015296658    
O          1.111674636        0.8084194399         1.264882269    
O          1.390039339         1.365485256        -1.362189475    
O         -1.094298014       -0.5879521759        0.8125282095    
O         0.5585421863        -2.248453966        -1.997786725    
O        -0.6148994054E-01    0.7498154867         1.374890517    
O          1.675229997        0.4485006777        -1.311728292    
O          2.542712014        0.1863439237        0.5586322538    
O          1.814166258         1.382928003        -1.159688508    
    12
Energy=    -193.451428730974    
O         -1.260264470        0.6753739233        -1.608862307    
O         -1.121352429        -1.730369427       -0.1494616577    
O         -1.568108128        0.7324883301         1.159560413    
O          1.454038184        -1.816528509        0.6373655282    
O          1.095201926        0.8245723854         1.298142830    
O          1.400484917         1.314463298        -1.336744807    
O         -1.098136968       -0.5825574301        0.7910306149    
O         0.5636832124        -2.228742101        -1.993028537    
O        -0.6722840094E-01    0.7385139456         1.383077291    
O          1.666300876        0.4941308572        -1.325123749    
O          2.555691940        0.1933258054        0.5595665150    
O          1.802460434         1.230930105        -1.195095386    
    12
Energy=    -193.435191432373    
O         -1.266016490        0.6757500870        -1.606546217    
O         -1.119470108        -1.729515143       -0.1519130948    
O         -1.578047543        0.7304211147         1.162657240    
O          1.471188752        -1.796254900        0.6009233125    
O          1.085673924        0.8340265019         1.317252359    
O          1.406671464         1.285572339        -1.322373599    
O         -1.100340154       -0.5794501804        0.7787628978    
O         0.5665825705        -2.217517612        -1.990317431    
O        -0.7046628149E-01    0.7321157999         1.387727791    
O          1.661294864        0.5200818702        -1.332851640    
O          2.563252040        0.1972845963        0.5599728875    
O          1.795913160         1.144355987        -1.215361184    
    12
Energy=    -193.432739131616    
O         -1.267025555        0.6756503703        -1.606194571    
O         -1.119598553        -1.729399403       -0.1524160338    
O         -1.579511731        0.7301013465         1.163053487    
O          1.474198788        -1.793637132        0.5957511094    
O          1.084084745        0.8357169569         1.320240078    
O          1.407852306         1.281567861        -1.320434069    
O         -1.100679445       -0.5789634105        0.7769513484    
O         0.5669733025        -2.215891555        -1.989921103    
O        -0.7089326122E-01    0.7312356624         1.388384411    
O          1.660664606        0.5238076846        -1.334096298    
O          2.564542943        0.1978338146        0.5598799794    
O          1.795091801         1.131767571        -1.218428261    
    12
Energy=    -193.427858858156    
O         -1.269239054        0.6766486808        -1.605349450    
O         -1.118169810        -1.728483546       -0.1536986249    
O         -1.582489077        0.7293643080         1.164402739    
O          1.480042955        -1.781677438        0.5778647067    
O          1.080493468        0.8393424326         1.329447651    
O          1.409361518         1.264805563        -1.312667022    
O         -1.101316181       -0.5777970542        0.7724860355    
O         0.5682647748        -2.211462200        -1.988575651    
O        -0.7232755521E-01    0.7284556326         1.390283077    
O          1.657105758        0.5353372250        -1.337040013    
O          2.565945650        0.1993934870        0.5613962000    
O          1.790987085         1.096511122        -1.225291571    
    12
Energy=    -193.433505099131    
O         -1.271452553        0.6776469914        -1.604504329    
O         -1.116741067        -1.727567690       -0.1549812160    
O         -1.585466424        0.7286272695         1.165751992    
O          1.485887123        -1.769717744        0.5599783041    
O          1.076902192        0.8429679083         1.338655224    
O          1.410870729         1.248043265        -1.304899975    
O         -1.101952918       -0.5766306979        0.7680207226    
O         0.5695562472        -2.207032845        -1.987230200    
O        -0.7376184920E-01    0.7256756028         1.392181743    
O          1.653546911        0.5468667655        -1.339983728    
O          2.567348357        0.2009531594        0.5629124206    
O          1.786882369         1.061254673        -1.232154881    
    12
Energy=    -193.434682480645    
O         -1.271537664        0.6779406252        -1.604451403    
O         -1.116188542        -1.727415289       -0.1550235029    
O         -1.585701103        0.7285804340         1.165943310    
O          1.485943697        -1.767873484        0.5577398404    
O          1.076758793        0.8430814687         1.339579788    
O          1.410724818         1.245686245        -1.303788034    
O         -1.101976647       -0.5765360017        0.7676340866    
O         0.5697199540        -2.206585525        -1.987070768    
O        -0.7395355701E-01    0.7253394742         1.392393637    
O          1.652951757        0.5481894089        -1.340167703    
O          2.567176882        0.2011334709        0.5633137396    
O          1.786233065         1.057634492        -1.232637071    
    12
Energy=    -193.441078810548    
O         -1.272453120        0.6792419819        -1.604048887    
O         -1.114296749        -1.726545904       -0.1556856574    
O         -1.586815868        0.7282481911         1.166868305    
O          1.487796534        -1.758260159        0.5453875685    
O          1.075191748        0.8445385263         1.345387113    
O          1.410577456         1.232777364        -1.297908443    
O         -1.102174501       -0.5759609856        0.7653741462    
O         0.5705931657        -2.204073486        -1.986156445    
O        -0.7493328505E-01    0.7235455567         1.393539994    
O          1.649839327        0.5555559189        -1.341538080    
O          2.566657236        0.2020585374        0.5652077821    
O          1.782833657         1.037133245        -1.235648331    
    12
Energy=    -193.544907161734    
O         -1.278383462        0.6871878355        -1.601493302    
O         -1.103062804        -1.721119873       -0.1600204385    
O         -1.593713846        0.7261425968         1.172570016    
O          1.500098932        -1.698630617        0.4683935303    
O          1.065066970        0.8540407807         1.381937629    
O          1.409994210         1.152379277        -1.261387435    
O         -1.103440089       -0.5723429262        0.7512236175    
O         0.5760158950        -2.188392497        -1.980440760    
O        -0.8099918042E-01    0.7123983556         1.400674091    
O          1.630526813        0.6015050014        -1.350258763    
O          2.563641684        0.2077944861        0.5768484209    
O          1.761749542        0.9090789539        -1.254601957    
    12
Energy=    -193.913003615922    
O         -1.284323622        0.6951387496        -1.598894273    
O         -1.091826575        -1.715645935       -0.1643873517    
O         -1.600487804        0.7240242101         1.178274977    
O          1.512393339        -1.638963959        0.3914961546    
O          1.054792573        0.8635006592         1.418398232    
O          1.409452088         1.071946275        -1.224887738    
O         -1.104711574       -0.5687531334        0.7370420897    
O         0.5814729346        -2.172702933        -1.974732734    
O        -0.8707703391E-01    0.7012216098         1.407814199    
O          1.611253444        0.6474638102        -1.358970867    
O          2.560702858        0.2135049050        0.5884856643    
O          1.740590553        0.7809926675        -1.273539194    
    12
Energy=    -194.502946757975    
O         -1.290451271        0.7029392144        -1.596315612    
O         -1.080039646        -1.710188341       -0.1686785747    
O         -1.607571618        0.7219324167         1.184039370    
O          1.524181436        -1.578911565        0.3147736504    
O          1.044448705        0.8730454015         1.454232576    
O          1.409432393        0.9911828735        -1.188051410    
O         -1.106003756       -0.5651473439        0.7227371528    
O         0.5869352007        -2.156994106        -1.969123118    
O        -0.9318790936E-01    0.6900132028         1.414977648    
O          1.592324833        0.6931174784        -1.367742442    
O          2.558803384        0.2192116776        0.5999119283    
O          1.719478379        0.6529607560        -1.292534651    
    12
Energy=    -194.555619613078    
O         -1.291092889        0.7036982286        -1.596051926    
O         -1.078900550        -1.709640824       -0.1691264048    
O         -1.608270584        0.7217204763         1.184610000    
O          1.525413446        -1.572901667        0.3071116533    
O          1.043367906        0.8740386612         1.457810928    
O          1.409482671        0.9830851251        -1.184354250    
O         -1.106136173       -0.5647866647        0.7212993840    
O         0.5874807279        -2.155425498        -1.968566162    
O        -0.9379480572E-01    0.6888959003         1.415691390    
O          1.590458685        0.6976617625        -1.368636779    
O          2.558674958        0.2197760598        0.6010295093    
O          1.717377532        0.6401644711        -1.294446164    
    12
Energy=    -195.316621624931    
O         -1.297883940        0.7104973329        -1.593418917    
O         -1.078284875        -1.704620222       -0.1762236385    
O         -1.616306707        0.7191306106         1.189326757    
O          1.551805802        -1.532411029        0.2320521657    
O          1.032500530        0.8895856762         1.508797494    
O          1.408169189        0.9178176307        -1.160533861    
O         -1.107815629       -0.5598311779        0.7068895857    
O         0.5920749022        -2.138477516        -1.961236712    
O        -0.9932391611E-01    0.6784016265         1.422990338    
O          1.567969581        0.7496240093        -1.379497596    
O          2.548383194        0.2260345604        0.6126075357    
O          1.698365854        0.5033943074        -1.317058633    
    12
Energy=    -195.813238264814    
O         -1.314163339        0.7069053246        -1.601576497    
O         -1.084982295        -1.709053839       -0.1793319224    
O         -1.619381904        0.7210294090         1.191056561    
O          1.565311512        -1.569412620        0.2355137597    
O          1.036195533        0.9013122197         1.510721522    
O          1.417020493        0.9492195062        -1.156383423    
O         -1.105755612       -0.5515869313        0.7052928526    
O         0.5892772495        -2.137491314        -1.958180824    
O        -0.1013446345        0.6762176397         1.424302216    
O          1.562937459        0.7756899696        -1.388858499    
O          2.533886008        0.2347097822        0.6179275330    
O          1.708426281        0.4830687975        -1.337460543    
    12
Energy=    -195.882494206751    
O         -1.312586363        0.7080785151        -1.595444532    
O         -1.086719689        -1.708765071       -0.1792640992    
O         -1.617508224        0.7206305081         1.186928452    
O          1.568689840        -1.562919041        0.2309828147    
O          1.032220776        0.9017084069         1.514984003    
O          1.415903661        0.9412666825        -1.158186639    
O         -1.105888509       -0.5502088757        0.7034585381    
O         0.5892892599        -2.137982309        -1.957522481    
O        -0.1019123441        0.6763400352         1.426453358    
O          1.566861738        0.7872830930        -1.392420540    
O          2.531170198        0.2390837532        0.6194361518    
O          1.710881429        0.4729404802        -1.340878003    
    12
Energy=    -195.943782741141    
O         -1.311514466        0.7092489438        -1.591558319    
O         -1.087091149        -1.709623376       -0.1776616588    
O         -1.618324510        0.7206299688         1.184398321    
O          1.569257256        -1.559319544        0.2294275768    
O          1.029953194        0.9051252515         1.514550128    
O          1.417719675        0.9339387569        -1.159156048    
O         -1.103567984       -0.5476812441        0.7014953130    
O         0.5884418309        -2.140765258        -1.957367837    
O        -0.1019640630        0.6763736911         1.427560927    
O          1.576350851        0.8043708705        -1.396541233    
O          2.528296838        0.2462078580        0.6212843149    
O          1.714764619        0.4705866381        -1.344529006    
    12
Energy=    -196.036690618799    
O         -1.310234654        0.7105590611        -1.587236965    
O         -1.089630256        -1.709541013       -0.1738976918    
O         -1.619091988        0.7209612817         1.184272643    
O          1.569612946        -1.559533246        0.2287356032    
O          1.024662041        0.9145634122         1.510040417    
O          1.424681911        0.9229905039        -1.161914007    
O         -1.098034937       -0.5443343903        0.6962739511    
O         0.5863753648        -2.146846163        -1.956080559    
O        -0.1028449882        0.6751985951         1.429123849    
O          1.599735056        0.8449447052        -1.402626963    
O          2.520278948        0.2612109661        0.6245841714    
O          1.718378862        0.4706800161        -1.347838219    
    12
Energy=    -196.100122361339    
O         -1.308342320        0.7105555709        -1.584402422    
O         -1.093055594        -1.706478629       -0.1707120814    
O         -1.628360819        0.7200516635         1.185027421    
O          1.570898907        -1.562649295        0.2275756575    
O          1.025253619        0.9256664324         1.505259066    
O          1.433606206        0.9128542571        -1.162747642    
O         -1.095419409       -0.5420406315        0.6886514987    
O         0.5833657077        -2.150952313        -1.953245313    
O        -0.1028531519        0.6762723258         1.431564159    
O          1.626872284        0.8916305371        -1.405611401    
O          2.511304366        0.2741903788        0.6253195843    
O          1.715508335        0.4658267278        -1.348311821    
    12
Energy=    -196.147567372316    
O         -1.306477472        0.7104244509        -1.586563209    
O         -1.094557703        -1.703996785       -0.1675172551    
O         -1.627776848        0.7213801446         1.191081204    
O          1.570200985        -1.568354775        0.2277719200    
O          1.017642107        0.9331986021         1.499489174    
O          1.440968931        0.9073483630        -1.164261834    
O         -1.096566170       -0.5429775215        0.6803951372    
O         0.5812701632        -2.152473270        -1.950380075    
O        -0.1045466154        0.6766200673         1.435036793    
O          1.650532584        0.9320338835        -1.404052114    
O          2.501919593        0.2818159421        0.6241291238    
O          1.709828498        0.4611000860        -1.347573205    
    12
Energy=    -196.177540068164    
O         -1.304844370        0.7095173733        -1.588263087    
O         -1.094418545        -1.702228306       -0.1669590563    
O         -1.630581530        0.7213765666         1.192201974    
O          1.569870142        -1.570256189        0.2290125717    
O          1.018154548        0.9344162597         1.498033131    
O          1.441819756        0.9071742954        -1.164025534    
O         -1.101018262       -0.5447354100        0.6764810246    
O         0.5805276504        -2.150533111        -1.949365395    
O        -0.1042773295        0.6782637013         1.436436874    
O          1.657082113        0.9427452931        -1.399286479    
O          2.498649919        0.2791526456        0.6217379683    
O          1.705438652        0.4577270575        -1.346911933    
    12
Energy=    -196.219097277560    
O         -1.301097914        0.7077986545        -1.592256245    
O         -1.093008431        -1.700720451       -0.1662741268    
O         -1.634664366        0.7232017764         1.192876482    
O          1.569339955        -1.569965305        0.2320547509    
O          1.017761682        0.9361415694         1.496503702    
O          1.441669074        0.9035437557        -1.162904563    
O         -1.110945196       -0.5477039319        0.6668744460    
O         0.5794658724        -2.145876792        -1.948603436    
O        -0.1035654138        0.6813669863         1.439694626    
O          1.669993010        0.9683632308        -1.388114390    
O          2.490105472        0.2719157371        0.6177924472    
O          1.697894393        0.4476008266        -1.349849312    
    12
Energy=    -196.242176409722    
O         -1.298274595        0.7063406632        -1.593098121    
O         -1.092099540        -1.700663903       -0.1658219866    
O         -1.634813960        0.7259184527         1.188652469    
O          1.567582138        -1.570450612        0.2385308719    
O          1.017227549        0.9392631554         1.495756846    
O          1.440378409        0.8995922438        -1.164020079    
O         -1.116293188       -0.5482924343        0.6592587188    
O         0.5797686151        -2.144507681        -1.950347250    
O        -0.1026849066        0.6825639382         1.440993544    
O          1.680189930        0.9912452134        -1.378845476    
O          2.483022097        0.2678448214        0.6175994097    
O          1.694561686        0.4456275607        -1.353911148    
    12
Energy=    -196.260200603862    
O         -1.295919263        0.7053896970        -1.597747697    
O         -1.091502960        -1.704202194       -0.1667640737    
O         -1.634967358        0.7327559588         1.184475161    
O          1.568331292        -1.565412925        0.2428420248    
O          1.016884144        0.9444373156         1.497557756    
O          1.437174145        0.8870321481        -1.160363172    
O         -1.119481797       -0.5455892921        0.6476134311    
O         0.5819167739        -2.142906360        -1.954428150    
O        -0.1031047611        0.6810290945         1.442815475    
O          1.692116560         1.029352652        -1.368497011    
O          2.472137007        0.2652022174        0.6217630406    
O          1.688695030        0.4288784094        -1.363645370    
    12
Energy=    -196.271876022330    
O         -1.296619020        0.7046990071        -1.596598322    
O         -1.090837867        -1.704517289       -0.1676046363    
O         -1.632334193        0.7345273071         1.179746370    
O          1.565482397        -1.566398090        0.2467058380    
O          1.017168814        0.9461864145         1.500182417    
O          1.437139869        0.8855026498        -1.162431666    
O         -1.116959078       -0.5424388037        0.6467249638    
O         0.5838359435        -2.144745783        -1.956694333    
O        -0.1034863550        0.6794723452         1.441283426    
O          1.692883064         1.034185760        -1.366982325    
O          2.470835960        0.2682054343        0.6247817766    
O          1.688678906        0.4302309008        -1.363807171    
    12
Energy=    -196.276577342552    
O         -1.296902402        0.7048055440        -1.596604732    
O         -1.092098977        -1.705102410       -0.1683311574    
O         -1.630524526        0.7349749487         1.178374237    
O          1.565225908        -1.567065436        0.2484886161    
O          1.018226021        0.9463736350         1.500395845    
O          1.436073976        0.8860137186        -1.162322809    
O         -1.114143394       -0.5399360908        0.6480327572    
O         0.5850807903        -2.146125462        -1.957593862    
O        -0.1044069600        0.6777204284         1.439582585    
O          1.691736951         1.032079499        -1.368181221    
O          2.470904983        0.2713446635        0.6272303859    
O          1.689730859        0.4313662669        -1.362613712    
    12
Energy=    -196.280457855388    
O         -1.297833098        0.7052591846        -1.598544614    
O         -1.092139806        -1.705404664       -0.1693808372    
O         -1.628964075        0.7354580115         1.177149116    
O          1.563825723        -1.567131287        0.2482469335    
O          1.019384018        0.9473566490         1.503071285    
O          1.435727237        0.8844621053        -1.160541883    
O         -1.111775990       -0.5358863820        0.6486125520    
O         0.5867685156        -2.146711394        -1.957452281    
O        -0.1063774372        0.6759818814         1.437239564    
O          1.691624862         1.032721140        -1.369292868    
O          2.469182566        0.2771010204        0.6300274621    
O          1.690628973        0.4264274727        -1.361054483    
    12
Energy=    -196.283483949063    
O         -1.296935932        0.7054332465        -1.600426962    
O         -1.093813841        -1.705211156       -0.1704754757    
O         -1.628037038        0.7361484013         1.176322489    
O          1.563559854        -1.568284784        0.2504594348    
O          1.020663622        0.9476078029         1.503438763    
O          1.434563335        0.8843064893        -1.159318249    
O         -1.112008856       -0.5344496145        0.6482176533    
O         0.5870131732        -2.146889351        -1.955914182    
O        -0.1082752543        0.6762912667         1.435738980    
O          1.695138177         1.035446697        -1.368846309    
O          2.464753314        0.2808243195        0.6308327668    
O          1.692053163        0.4264950596        -1.358291316    
    12
Energy=    -196.285600009164    
O         -1.296636422        0.7057334349        -1.601644814    
O         -1.093722123        -1.704261250       -0.1708270245    
O         -1.627743833        0.7362185842         1.175474690    
O          1.563301451        -1.569307075        0.2498495505    
O          1.020780584        0.9484014059         1.504227927    
O          1.434020343        0.8832148998        -1.157080328    
O         -1.112968262       -0.5342878727        0.6475854752    
O         0.5864757567        -2.146608335        -1.953958094    
O        -0.1097084367        0.6771771912         1.434778315    
O          1.697451910         1.038154727        -1.368568451    
O          2.460893056        0.2831093901        0.6305977098    
O          1.693464897        0.4249994828        -1.356736376    
    12
Energy=    -196.287865845811    
O         -1.296435185        0.7068178738        -1.604665597    
O         -1.093024257        -1.703458530       -0.1710367277    
O         -1.628012574        0.7372648926         1.174051100    
O          1.563336602        -1.571454042        0.2486968403    
O          1.020545137        0.9490134875         1.506898062    
O          1.433590278        0.8818163178        -1.153943678    
O         -1.113601618       -0.5346841425        0.6472378867    
O         0.5844254954        -2.147366054        -1.950512506    
O        -0.1125840045        0.6796555755         1.433174227    
O          1.701047356         1.040812234        -1.369261871    
O          2.453278048        0.2871444101        0.6292250598    
O          1.697413390        0.4260793419        -1.353716222    
    12
Energy=    -196.289121719024    
O         -1.296924601        0.7071024454        -1.604548927    
O         -1.092492856        -1.702431797       -0.1710397526    
O         -1.627845050        0.7377128917         1.172692058    
O          1.564130129        -1.572623297        0.2468647873    
O          1.019961947        0.9492423767         1.507561709    
O          1.433170431        0.8809973797        -1.151529875    
O         -1.113309770       -0.5355560931        0.6473980522    
O         0.5830431940        -2.148452672        -1.949176329    
O        -0.1144006145        0.6796552901         1.432306798    
O          1.700302494         1.040978368        -1.370746097    
O          2.450500745        0.2883938212        0.6291437271    
O          1.699416361        0.4268818093        -1.352735116    
    12
Energy=    -196.290389041655    
O         -1.295513702        0.7069900516        -1.605329975    
O         -1.092180148        -1.702006221       -0.1684058889    
O         -1.629455275        0.7394431813         1.171065523    
O          1.566015242        -1.574069071        0.2437255562    
O          1.018127807        0.9474687510         1.509095130    
O          1.433006076        0.8821733081        -1.150150345    
O         -1.113031333       -0.5365030596        0.6477569819    
O         0.5804675492        -2.152527105        -1.948474912    
O        -0.1166467491        0.6785740553         1.430631269    
O          1.697652652         1.040415118        -1.374904865    
O          2.449447469        0.2896741453        0.6305297161    
O          1.701251275        0.4305251972        -1.351789229    
    12
Energy=    -196.290778845712    
O         -1.294894239        0.7058491167        -1.606050335    
O         -1.092354431        -1.701392631       -0.1661520445    
O         -1.630424798        0.7414219906         1.170346891    
O          1.566446770        -1.574229089        0.2420192419    
O          1.017510352        0.9454037554         1.509411471    
O          1.433716346        0.8829468578        -1.149575225    
O         -1.114887031       -0.5368125275        0.6479970454    
O         0.5814059934        -2.153142658        -1.946590924    
O        -0.1155972457        0.6779191675         1.429482946    
O          1.697879315         1.042659515        -1.376674728    
O          2.449738454        0.2898995159        0.6323924731    
O          1.701753520        0.4308869455        -1.350841568    
